MODEL 1
REMARK VINA RESULT:    -7.878      0.000      0.000
REMARK INTER + INTRA:          -7.878
REMARK INTER:                  -7.878
REMARK INTRA:                   0.000
REMARK UNBOUND:                 0.000
REMARK  0 active torsions:
REMARK  status: ('A' for Active; 'I' for Inactive)
ROOT
HETATM    1  N1  LFN     0       9.187   3.463  -7.527  0.00  0.00    -0.173 NA
HETATM    2  C2  LFN     0       9.439   2.593  -8.502  0.00  0.00     0.350 A 
HETATM    3  C10 LFN     0      10.122   3.830  -6.668  0.00  0.00     0.170 A 
HETATM    4  O2  LFN     0       8.528   2.298  -9.254  0.00  0.00    -0.244 OA
HETATM    5  N3  LFN     0      10.635   2.022  -8.708  0.00  0.00    -0.272 N 
HETATM    6  C4  LFN     0      11.693   2.301  -7.912  0.00  0.00     0.282 A 
HETATM    7  O4  LFN     0      12.778   1.784  -8.096  0.00  0.00    -0.265 OA
HETATM    8  C4A LFN     0      11.474   3.262  -6.809  0.00  0.00     0.171 A 
HETATM    9  N5  LFN     0      12.428   3.604  -5.981  0.00  0.00    -0.237 NA
HETATM   10  C5A LFN     0      12.195   4.479  -4.993  0.00  0.00     0.085 A 
HETATM   11  C6  LFN     0      13.235   4.833  -4.112  0.00  0.00     0.041 A 
HETATM   12  C9A LFN     0      10.916   5.055  -4.818  0.00  0.00     0.065 A 
HETATM   13  C7  LFN     0      13.001   5.722  -3.107  0.00  0.00    -0.054 A 
HETATM   14  C7M LFN     0      14.119   6.097  -2.168  0.00  0.00     0.049 C 
HETATM   15  C8  LFN     0      11.742   6.288  -2.936  0.00  0.00    -0.054 A 
HETATM   16  C8M LFN     0      11.509   7.269  -1.816  0.00  0.00     0.049 C 
HETATM   17  C9  LFN     0      10.705   5.960  -3.782  0.00  0.00     0.039 A 
HETATM   18  N10 LFN     0       9.882   4.724  -5.668  0.00  0.00    -0.332 N 
HETATM   19  C1' LFN     0       8.553   5.316  -5.496  0.00  0.00     0.158 C 
HETATM   20  H3  LFN     0      10.743   1.395  -9.440  0.00  0.00     0.174 HD
ENDROOT
TORSDOF 0
ENDMDL
MODEL 2
REMARK VINA RESULT:    -7.788     13.297     15.692
REMARK INTER + INTRA:          -7.788
REMARK INTER:                  -7.788
REMARK INTRA:                   0.000
REMARK UNBOUND:                 0.000
REMARK  0 active torsions:
REMARK  status: ('A' for Active; 'I' for Inactive)
ROOT
HETATM    1  N1  LFN     0      -2.902   0.606  -4.850  0.00  0.00    -0.173 NA
HETATM    2  C2  LFN     0      -2.226   1.141  -3.836  0.00  0.00     0.350 A 
HETATM    3  C10 LFN     0      -2.538  -0.543  -5.393  0.00  0.00     0.170 A 
HETATM    4  O2  LFN     0      -2.615   2.205  -3.388  0.00  0.00    -0.244 OA
HETATM    5  N3  LFN     0      -1.142   0.581  -3.277  0.00  0.00    -0.272 N 
HETATM    6  C4  LFN     0      -0.653  -0.599  -3.722  0.00  0.00     0.282 A 
HETATM    7  O4  LFN     0       0.330  -1.108  -3.217  0.00  0.00    -0.265 OA
HETATM    8  C4A LFN     0      -1.362  -1.242  -4.849  0.00  0.00     0.171 A 
HETATM    9  N5  LFN     0      -0.974  -2.385  -5.358  0.00  0.00    -0.237 NA
HETATM   10  C5A LFN     0      -1.641  -2.941  -6.378  0.00  0.00     0.085 A 
HETATM   11  C6  LFN     0      -1.207  -4.170  -6.911  0.00  0.00     0.041 A 
HETATM   12  C9A LFN     0      -2.779  -2.311  -6.933  0.00  0.00     0.065 A 
HETATM   13  C7  LFN     0      -1.883  -4.737  -7.948  0.00  0.00    -0.054 A 
HETATM   14  C7M LFN     0      -1.413  -6.053  -8.514  0.00  0.00     0.049 C 
HETATM   15  C8  LFN     0      -3.002  -4.116  -8.493  0.00  0.00    -0.054 A 
HETATM   16  C8M LFN     0      -3.733  -4.765  -9.641  0.00  0.00     0.049 C 
HETATM   17  C9  LFN     0      -3.450  -2.913  -7.993  0.00  0.00     0.039 A 
HETATM   18  N10 LFN     0      -3.223  -1.107  -6.427  0.00  0.00    -0.332 N 
HETATM   19  C1' LFN     0      -4.401  -0.447  -6.995  0.00  0.00     0.158 C 
HETATM   20  H3  LFN     0      -0.702   1.032  -2.540  0.00  0.00     0.174 HD
ENDROOT
TORSDOF 0
ENDMDL
MODEL 3
REMARK VINA RESULT:    -7.697     12.868     14.418
REMARK INTER + INTRA:          -7.697
REMARK INTER:                  -7.697
REMARK INTRA:                   0.000
REMARK UNBOUND:                 0.000
REMARK  0 active torsions:
REMARK  status: ('A' for Active; 'I' for Inactive)
ROOT
HETATM    1  N1  LFN     0      -3.317  -2.907  -7.604  0.00  0.00    -0.173 NA
HETATM    2  C2  LFN     0      -2.822  -3.762  -8.496  0.00  0.00     0.350 A 
HETATM    3  C10 LFN     0      -2.600  -2.489  -6.575  0.00  0.00     0.170 A 
HETATM    4  O2  LFN     0      -3.541  -4.108  -9.416  0.00  0.00    -0.244 OA
HETATM    5  N3  LFN     0      -1.580  -4.266  -8.444  0.00  0.00    -0.272 N 
HETATM    6  C4  LFN     0      -0.725  -3.927  -7.451  0.00  0.00     0.282 A 
HETATM    7  O4  LFN     0       0.401  -4.384  -7.402  0.00  0.00    -0.265 OA
HETATM    8  C4A LFN     0      -1.220  -2.980  -6.428  0.00  0.00     0.171 A 
HETATM    9  N5  LFN     0      -0.477  -2.585  -5.425  0.00  0.00    -0.237 NA
HETATM   10  C5A LFN     0      -0.956  -1.724  -4.517  0.00  0.00     0.085 A 
HETATM   11  C6  LFN     0      -0.140  -1.312  -3.445  0.00  0.00     0.041 A 
HETATM   12  C9A LFN     0      -2.273  -1.220  -4.616  0.00  0.00     0.065 A 
HETATM   13  C7  LFN     0      -0.625  -0.438  -2.520  0.00  0.00    -0.054 A 
HETATM   14  C7M LFN     0       0.253  -0.001  -1.376  0.00  0.00     0.049 C 
HETATM   15  C8  LFN     0      -1.921   0.058  -2.619  0.00  0.00    -0.054 A 
HETATM   16  C8M LFN     0      -2.433   1.024  -1.583  0.00  0.00     0.049 C 
HETATM   17  C9  LFN     0      -2.742  -0.328  -3.657  0.00  0.00     0.039 A 
HETATM   18  N10 LFN     0      -3.090  -1.609  -5.657  0.00  0.00    -0.332 N 
HETATM   19  C1' LFN     0      -4.456  -1.092  -5.769  0.00  0.00     0.158 C 
HETATM   20  H3  LFN     0      -1.290  -4.885  -9.131  0.00  0.00     0.174 HD
ENDROOT
TORSDOF 0
ENDMDL
MODEL 4
REMARK VINA RESULT:    -7.556     13.283     13.786
REMARK INTER + INTRA:          -7.556
REMARK INTER:                  -7.556
REMARK INTRA:                   0.000
REMARK UNBOUND:                 0.000
REMARK  0 active torsions:
REMARK  status: ('A' for Active; 'I' for Inactive)
ROOT
HETATM    1  N1  LFN     0      -3.144   0.766  -5.860  0.00  0.00    -0.173 NA
HETATM    2  C2  LFN     0      -3.426   0.157  -7.009  0.00  0.00     0.350 A 
HETATM    3  C10 LFN     0      -2.387   0.192  -4.941  0.00  0.00     0.170 A 
HETATM    4  O2  LFN     0      -4.134   0.744  -7.808  0.00  0.00    -0.244 OA
HETATM    5  N3  LFN     0      -2.979  -1.063  -7.342  0.00  0.00    -0.272 N 
HETATM    6  C4  LFN     0      -2.189  -1.774  -6.505  0.00  0.00     0.282 A 
HETATM    7  O4  LFN     0      -1.783  -2.880  -6.804  0.00  0.00    -0.265 OA
HETATM    8  C4A LFN     0      -1.841  -1.148  -5.211  0.00  0.00     0.171 A 
HETATM    9  N5  LFN     0      -1.083  -1.747  -4.327  0.00  0.00    -0.237 NA
HETATM   10  C5A LFN     0      -0.786  -1.151  -3.164  0.00  0.00     0.085 A 
HETATM   11  C6  LFN     0       0.031  -1.812  -2.226  0.00  0.00     0.041 A 
HETATM   12  C9A LFN     0      -1.282   0.138  -2.861  0.00  0.00     0.065 A 
HETATM   13  C7  LFN     0       0.334  -1.209  -1.044  0.00  0.00    -0.054 A 
HETATM   14  C7M LFN     0       1.208  -1.922  -0.046  0.00  0.00     0.049 C 
HETATM   15  C8  LFN     0      -0.155   0.059  -0.747  0.00  0.00    -0.054 A 
HETATM   16  C8M LFN     0       0.195   0.705   0.569  0.00  0.00     0.049 C 
HETATM   17  C9  LFN     0      -0.956   0.731  -1.644  0.00  0.00     0.039 A 
HETATM   18  N10 LFN     0      -2.083   0.806  -3.763  0.00  0.00    -0.332 N 
HETATM   19  C1' LFN     0      -2.601   2.141  -3.457  0.00  0.00     0.158 C 
HETATM   20  H3  LFN     0      -3.228  -1.443  -8.199  0.00  0.00     0.174 HD
ENDROOT
TORSDOF 0
ENDMDL
MODEL 5
REMARK VINA RESULT:    -7.493     13.094     14.997
REMARK INTER + INTRA:          -7.493
REMARK INTER:                  -7.493
REMARK INTRA:                   0.000
REMARK UNBOUND:                 0.000
REMARK  0 active torsions:
REMARK  status: ('A' for Active; 'I' for Inactive)
ROOT
HETATM    1  N1  LFN     0       0.261  -0.529  -1.027  0.00  0.00    -0.173 NA
HETATM    2  C2  LFN     0       0.356   0.243   0.053  0.00  0.00     0.350 A 
HETATM    3  C10 LFN     0      -0.602  -0.264  -1.993  0.00  0.00     0.170 A 
HETATM    4  O2  LFN     0       1.170  -0.064   0.905  0.00  0.00    -0.244 OA
HETATM    5  N3  LFN     0      -0.390   1.339   0.260  0.00  0.00    -0.272 N 
HETATM    6  C4  LFN     0      -1.314   1.741  -0.643  0.00  0.00     0.282 A 
HETATM    7  O4  LFN     0      -1.992   2.733  -0.456  0.00  0.00    -0.265 OA
HETATM    8  C4A LFN     0      -1.466   0.921  -1.864  0.00  0.00     0.171 A 
HETATM    9  N5  LFN     0      -2.330   1.219  -2.802  0.00  0.00    -0.237 NA
HETATM   10  C5A LFN     0      -2.441   0.455  -3.897  0.00  0.00     0.085 A 
HETATM   11  C6  LFN     0      -3.376   0.793  -4.895  0.00  0.00     0.041 A 
HETATM   12  C9A LFN     0      -1.631  -0.690  -4.070  0.00  0.00     0.065 A 
HETATM   13  C7  LFN     0      -3.491   0.018  -6.008  0.00  0.00    -0.054 A 
HETATM   14  C7M LFN     0      -4.494   0.385  -7.072  0.00  0.00     0.049 C 
HETATM   15  C8  LFN     0      -2.693  -1.109  -6.177  0.00  0.00    -0.054 A 
HETATM   16  C8M LFN     0      -2.840  -1.950  -7.419  0.00  0.00     0.049 C 
HETATM   17  C9  LFN     0      -1.770  -1.464  -5.218  0.00  0.00     0.039 A 
HETATM   18  N10 LFN     0      -0.707  -1.041  -3.108  0.00  0.00    -0.332 N 
HETATM   19  C1' LFN     0       0.137  -2.226  -3.278  0.00  0.00     0.158 C 
HETATM   20  H3  LFN     0      -0.264   1.852   1.073  0.00  0.00     0.174 HD
ENDROOT
TORSDOF 0
ENDMDL
MODEL 6
REMARK VINA RESULT:    -7.379     13.120     14.080
REMARK INTER + INTRA:          -7.379
REMARK INTER:                  -7.379
REMARK INTRA:                   0.000
REMARK UNBOUND:                 0.000
REMARK  0 active torsions:
REMARK  status: ('A' for Active; 'I' for Inactive)
ROOT
HETATM    1  N1  LFN     0      -1.189  -2.598  -5.954  0.00  0.00    -0.173 NA
HETATM    2  C2  LFN     0      -1.904  -2.650  -7.076  0.00  0.00     0.350 A 
HETATM    3  C10 LFN     0      -1.401  -1.666  -5.041  0.00  0.00     0.170 A 
HETATM    4  O2  LFN     0      -1.651  -3.533  -7.875  0.00  0.00    -0.244 OA
HETATM    5  N3  LFN     0      -2.886  -1.788  -7.381  0.00  0.00    -0.272 N 
HETATM    6  C4  LFN     0      -3.222  -0.781  -6.541  0.00  0.00     0.282 A 
HETATM    7  O4  LFN     0      -4.112   0.001  -6.816  0.00  0.00    -0.265 OA
HETATM    8  C4A LFN     0      -2.462  -0.673  -5.278  0.00  0.00     0.171 A 
HETATM    9  N5  LFN     0      -2.705   0.263  -4.395  0.00  0.00    -0.237 NA
HETATM   10  C5A LFN     0      -1.997   0.332  -3.259  0.00  0.00     0.085 A 
HETATM   11  C6  LFN     0      -2.274   1.347  -2.322  0.00  0.00     0.041 A 
HETATM   12  C9A LFN     0      -0.971  -0.601  -2.984  0.00  0.00     0.065 A 
HETATM   13  C7  LFN     0      -1.556   1.419  -1.167  0.00  0.00    -0.054 A 
HETATM   14  C7M LFN     0      -1.858   2.507  -0.169  0.00  0.00     0.049 C 
HETATM   15  C8  LFN     0      -0.547   0.500  -0.897  0.00  0.00    -0.054 A 
HETATM   16  C8M LFN     0       0.233   0.602   0.388  0.00  0.00     0.049 C 
HETATM   17  C9  LFN     0      -0.254  -0.503  -1.795  0.00  0.00     0.039 A 
HETATM   18  N10 LFN     0      -0.682  -1.604  -3.885  0.00  0.00    -0.332 N 
HETATM   19  C1' LFN     0       0.379  -2.576  -3.609  0.00  0.00     0.158 C 
HETATM   20  H3  LFN     0      -3.363  -1.889  -8.218  0.00  0.00     0.174 HD
ENDROOT
TORSDOF 0
ENDMDL
MODEL 7
REMARK VINA RESULT:    -7.330      3.666      5.942
REMARK INTER + INTRA:          -7.330
REMARK INTER:                  -7.330
REMARK INTRA:                   0.000
REMARK UNBOUND:                 0.000
REMARK  0 active torsions:
REMARK  status: ('A' for Active; 'I' for Inactive)
ROOT
HETATM    1  N1  LFN     0      10.526   6.226  -2.013  0.00  0.00    -0.173 NA
HETATM    2  C2  LFN     0      10.916   7.406  -1.537  0.00  0.00     0.350 A 
HETATM    3  C10 LFN     0      11.045   5.720  -3.119  0.00  0.00     0.170 A 
HETATM    4  O2  LFN     0      10.391   7.813  -0.516  0.00  0.00    -0.244 OA
HETATM    5  N3  LFN     0      11.851   8.176  -2.113  0.00  0.00    -0.272 N 
HETATM    6  C4  LFN     0      12.477   7.789  -3.249  0.00  0.00     0.282 A 
HETATM    7  O4  LFN     0      13.325   8.486  -3.773  0.00  0.00    -0.265 OA
HETATM    8  C4A LFN     0      12.085   6.485  -3.826  0.00  0.00     0.171 A 
HETATM    9  N5  LFN     0      12.626   6.016  -4.922  0.00  0.00    -0.237 NA
HETATM   10  C5A LFN     0      12.247   4.829  -5.417  0.00  0.00     0.085 A 
HETATM   11  C6  LFN     0      12.842   4.341  -6.597  0.00  0.00     0.041 A 
HETATM   12  C9A LFN     0      11.256   4.055  -4.772  0.00  0.00     0.065 A 
HETATM   13  C7  LFN     0      12.459   3.137  -7.103  0.00  0.00    -0.054 A 
HETATM   14  C7M LFN     0      13.100   2.621  -8.366  0.00  0.00     0.049 C 
HETATM   15  C8  LFN     0      11.484   2.375  -6.467  0.00  0.00    -0.054 A 
HETATM   16  C8M LFN     0      11.078   1.045  -7.047  0.00  0.00     0.049 C 
HETATM   17  C9  LFN     0      10.885   2.826  -5.311  0.00  0.00     0.039 A 
HETATM   18  N10 LFN     0      10.661   4.511  -3.615  0.00  0.00    -0.332 N 
HETATM   19  C1' LFN     0       9.632   3.715  -2.939  0.00  0.00     0.158 C 
HETATM   20  H3  LFN     0      12.083   9.025  -1.707  0.00  0.00     0.174 HD
ENDROOT
TORSDOF 0
ENDMDL
MODEL 8
REMARK VINA RESULT:    -7.307      3.664      6.092
REMARK INTER + INTRA:          -7.307
REMARK INTER:                  -7.307
REMARK INTRA:                   0.000
REMARK UNBOUND:                 0.000
REMARK  0 active torsions:
REMARK  status: ('A' for Active; 'I' for Inactive)
ROOT
HETATM    1  N1  LFN     0      11.407   6.888  -2.913  0.00  0.00    -0.173 NA
HETATM    2  C2  LFN     0      10.875   7.135  -1.719  0.00  0.00     0.350 A 
HETATM    3  C10 LFN     0      11.345   5.688  -3.463  0.00  0.00     0.170 A 
HETATM    4  O2  LFN     0      10.973   8.263  -1.271  0.00  0.00    -0.244 OA
HETATM    5  N3  LFN     0      10.235   6.218  -0.977  0.00  0.00    -0.272 N 
HETATM    6  C4  LFN     0      10.087   4.944  -1.410  0.00  0.00     0.282 A 
HETATM    7  O4  LFN     0       9.509   4.111  -0.739  0.00  0.00    -0.265 OA
HETATM    8  C4A LFN     0      10.660   4.609  -2.732  0.00  0.00     0.171 A 
HETATM    9  N5  LFN     0      10.574   3.408  -3.246  0.00  0.00    -0.237 NA
HETATM   10  C5A LFN     0      11.103   3.139  -4.447  0.00  0.00     0.085 A 
HETATM   11  C6  LFN     0      11.000   1.840  -4.982  0.00  0.00     0.041 A 
HETATM   12  C9A LFN     0      11.767   4.141  -5.190  0.00  0.00     0.065 A 
HETATM   13  C7  LFN     0      11.536   1.563  -6.202  0.00  0.00    -0.054 A 
HETATM   14  C7M LFN     0      11.422   0.172  -6.769  0.00  0.00     0.049 C 
HETATM   15  C8  LFN     0      12.190   2.551  -6.933  0.00  0.00    -0.054 A 
HETATM   16  C8M LFN     0      12.775   2.219  -8.281  0.00  0.00     0.049 C 
HETATM   17  C9  LFN     0      12.306   3.830  -6.435  0.00  0.00     0.039 A 
HETATM   18  N10 LFN     0      11.880   5.420  -4.688  0.00  0.00    -0.332 N 
HETATM   19  C1' LFN     0      12.566   6.466  -5.451  0.00  0.00     0.158 C 
HETATM   20  H3  LFN     0       9.873   6.473  -0.115  0.00  0.00     0.174 HD
ENDROOT
TORSDOF 0
ENDMDL
MODEL 9
REMARK VINA RESULT:    -7.119      5.791      8.427
REMARK INTER + INTRA:          -7.119
REMARK INTER:                  -7.119
REMARK INTRA:                   0.000
REMARK UNBOUND:                 0.000
REMARK  0 active torsions:
REMARK  status: ('A' for Active; 'I' for Inactive)
ROOT
HETATM    1  N1  LFN     0      13.024   9.927   0.059  0.00  0.00    -0.173 NA
HETATM    2  C2  LFN     0      12.661  10.366   1.261  0.00  0.00     0.350 A 
HETATM    3  C10 LFN     0      12.388   8.932  -0.535  0.00  0.00     0.170 A 
HETATM    4  O2  LFN     0      13.295  11.284   1.750  0.00  0.00    -0.244 OA
HETATM    5  N3  LFN     0      11.638   9.862   1.968  0.00  0.00    -0.272 N 
HETATM    6  C4  LFN     0      10.889   8.842   1.488  0.00  0.00     0.282 A 
HETATM    7  O4  LFN     0       9.962   8.382   2.127  0.00  0.00    -0.265 OA
HETATM    8  C4A LFN     0      11.246   8.310   0.155  0.00  0.00     0.171 A 
HETATM    9  N5  LFN     0      10.589   7.325  -0.403  0.00  0.00    -0.237 NA
HETATM   10  C5A LFN     0      10.938   6.868  -1.613  0.00  0.00     0.085 A 
HETATM   11  C6  LFN     0      10.218   5.807  -2.196  0.00  0.00     0.041 A 
HETATM   12  C9A LFN     0      12.024   7.435  -2.318  0.00  0.00     0.065 A 
HETATM   13  C7  LFN     0      10.571   5.341  -3.425  0.00  0.00    -0.054 A 
HETATM   14  C7M LFN     0       9.796   4.206  -4.043  0.00  0.00     0.049 C 
HETATM   15  C8  LFN     0      11.640   5.900  -4.118  0.00  0.00    -0.054 A 
HETATM   16  C8M LFN     0      12.011   5.365  -5.478  0.00  0.00     0.049 C 
HETATM   17  C9  LFN     0      12.363   6.938  -3.573  0.00  0.00     0.039 A 
HETATM   18  N10 LFN     0      12.744   8.475  -1.768  0.00  0.00    -0.332 N 
HETATM   19  C1' LFN     0      13.872   9.069  -2.492  0.00  0.00     0.158 C 
HETATM   20  H3  LFN     0      11.433  10.235   2.839  0.00  0.00     0.174 HD
ENDROOT
TORSDOF 0
ENDMDL
MODEL 10
REMARK VINA RESULT:    -7.101     13.027     15.051
REMARK INTER + INTRA:          -7.101
REMARK INTER:                  -7.101
REMARK INTRA:                   0.000
REMARK UNBOUND:                 0.000
REMARK  0 active torsions:
REMARK  status: ('A' for Active; 'I' for Inactive)
ROOT
HETATM    1  N1  LFN     0      -2.535   0.990  -2.155  0.00  0.00    -0.173 NA
HETATM    2  C2  LFN     0      -1.804   1.353  -1.104  0.00  0.00     0.350 A 
HETATM    3  C10 LFN     0      -2.112   0.073  -3.007  0.00  0.00     0.170 A 
HETATM    4  O2  LFN     0      -2.254   2.208  -0.362  0.00  0.00    -0.244 OA
HETATM    5  N3  LFN     0      -0.602   0.834  -0.809  0.00  0.00    -0.272 N 
HETATM    6  C4  LFN     0      -0.039  -0.119  -1.587  0.00  0.00     0.282 A 
HETATM    7  O4  LFN     0       1.050  -0.591  -1.323  0.00  0.00    -0.265 OA
HETATM    8  C4A LFN     0      -0.805  -0.563  -2.772  0.00  0.00     0.171 A 
HETATM    9  N5  LFN     0      -0.355  -1.479  -3.591  0.00  0.00    -0.237 NA
HETATM   10  C5A LFN     0      -1.075  -1.859  -4.655  0.00  0.00     0.085 A 
HETATM   11  C6  LFN     0      -0.573  -2.847  -5.525  0.00  0.00     0.041 A 
HETATM   12  C9A LFN     0      -2.338  -1.282  -4.922  0.00  0.00     0.065 A 
HETATM   13  C7  LFN     0      -1.303  -3.234  -6.607  0.00  0.00    -0.054 A 
HETATM   14  C7M LFN     0      -0.759  -4.292  -7.533  0.00  0.00     0.049 C 
HETATM   15  C8  LFN     0      -2.545  -2.666  -6.868  0.00  0.00    -0.054 A 
HETATM   16  C8M LFN     0      -3.333  -3.112  -8.073  0.00  0.00     0.049 C 
HETATM   17  C9  LFN     0      -3.062  -1.697  -6.036  0.00  0.00     0.039 A 
HETATM   18  N10 LFN     0      -2.851  -0.314  -4.085  0.00  0.00    -0.332 N 
HETATM   19  C1' LFN     0      -4.159   0.290  -4.353  0.00  0.00     0.158 C 
HETATM   20  H3  LFN     0      -0.128   1.150  -0.024  0.00  0.00     0.174 HD
ENDROOT
TORSDOF 0
ENDMDL
