MODEL 1
REMARK VINA RESULT:    -6.815      0.000      0.000
REMARK INTER + INTRA:          -6.815
REMARK INTER:                  -6.815
REMARK INTRA:                   0.000
REMARK UNBOUND:                 0.000
REMARK  0 active torsions:
REMARK  status: ('A' for Active; 'I' for Inactive)
ROOT
HETATM    1  N1  LFN     0       8.173 -14.571  -2.341  0.00  0.00    -0.173 NA
HETATM    2  C2  LFN     0       8.568 -13.853  -1.293  0.00  0.00     0.350 A 
HETATM    3  C10 LFN     0       7.465 -14.034  -3.320  0.00  0.00     0.170 A 
HETATM    4  O2  LFN     0       9.214 -14.415  -0.426  0.00  0.00    -0.244 OA
HETATM    5  N3  LFN     0       8.301 -12.549  -1.132  0.00  0.00    -0.272 N 
HETATM    6  C4  LFN     0       7.590 -11.859  -2.054  0.00  0.00     0.282 A 
HETATM    7  O4  LFN     0       7.346 -10.676  -1.910  0.00  0.00    -0.265 OA
HETATM    8  C4A LFN     0       7.121 -12.604  -3.242  0.00  0.00     0.171 A 
HETATM    9  N5  LFN     0       6.426 -12.035  -4.194  0.00  0.00    -0.237 NA
HETATM   10  C5A LFN     0       6.018 -12.740  -5.258  0.00  0.00     0.085 A 
HETATM   11  C6  LFN     0       5.271 -12.109  -6.272  0.00  0.00     0.041 A 
HETATM   12  C9A LFN     0       6.326 -14.114  -5.381  0.00  0.00     0.065 A 
HETATM   13  C7  LFN     0       4.855 -12.823  -7.354  0.00  0.00    -0.054 A 
HETATM   14  C7M LFN     0       4.056 -12.141  -8.434  0.00  0.00     0.049 C 
HETATM   15  C8  LFN     0       5.159 -14.175  -7.474  0.00  0.00    -0.054 A 
HETATM   16  C8M LFN     0       4.687 -14.943  -8.682  0.00  0.00     0.049 C 
HETATM   17  C9  LFN     0       5.888 -14.819  -6.499  0.00  0.00     0.039 A 
HETATM   18  N10 LFN     0       7.058 -14.754  -4.403  0.00  0.00    -0.332 N 
HETATM   19  C1' LFN     0       7.382 -16.178  -4.522  0.00  0.00     0.158 C 
HETATM   20  H3  LFN     0       8.624 -12.092  -0.340  0.00  0.00     0.174 HD
ENDROOT
TORSDOF 0
ENDMDL
MODEL 2
REMARK VINA RESULT:    -6.679      1.483      3.020
REMARK INTER + INTRA:          -6.679
REMARK INTER:                  -6.679
REMARK INTRA:                   0.000
REMARK UNBOUND:                 0.000
REMARK  0 active torsions:
REMARK  status: ('A' for Active; 'I' for Inactive)
ROOT
HETATM    1  N1  LFN     0       7.118 -13.567  -2.222  0.00  0.00    -0.173 NA
HETATM    2  C2  LFN     0       7.868 -14.488  -1.623  0.00  0.00     0.350 A 
HETATM    3  C10 LFN     0       6.660 -13.740  -3.450  0.00  0.00     0.170 A 
HETATM    4  O2  LFN     0       8.259 -14.259  -0.492  0.00  0.00    -0.244 OA
HETATM    5  N3  LFN     0       8.219 -15.654  -2.186  0.00  0.00    -0.272 N 
HETATM    6  C4  LFN     0       7.821 -15.976  -3.439  0.00  0.00     0.282 A 
HETATM    7  O4  LFN     0       8.139 -17.032  -3.952  0.00  0.00    -0.265 OA
HETATM    8  C4A LFN     0       6.985 -14.990  -4.157  0.00  0.00     0.171 A 
HETATM    9  N5  LFN     0       6.546 -15.200  -5.372  0.00  0.00    -0.237 NA
HETATM   10  C5A LFN     0       5.789 -14.285  -5.993  0.00  0.00     0.085 A 
HETATM   11  C6  LFN     0       5.327 -14.530  -7.301  0.00  0.00     0.041 A 
HETATM   12  C9A LFN     0       5.446 -13.071  -5.356  0.00  0.00     0.065 A 
HETATM   13  C7  LFN     0       4.558 -13.603  -7.935  0.00  0.00    -0.054 A 
HETATM   14  C7M LFN     0       4.066 -13.871  -9.334  0.00  0.00     0.049 C 
HETATM   15  C8  LFN     0       4.220 -12.408  -7.306  0.00  0.00    -0.054 A 
HETATM   16  C8M LFN     0       3.368 -11.397  -8.030  0.00  0.00     0.049 C 
HETATM   17  C9  LFN     0       4.658 -12.141  -6.027  0.00  0.00     0.039 A 
HETATM   18  N10 LFN     0       5.886 -12.809  -4.075  0.00  0.00    -0.332 N 
HETATM   19  C1' LFN     0       5.535 -11.553  -3.406  0.00  0.00     0.158 C 
HETATM   20  H3  LFN     0       8.768 -16.277  -1.686  0.00  0.00     0.174 HD
ENDROOT
TORSDOF 0
ENDMDL
MODEL 3
REMARK VINA RESULT:    -6.630     13.723     15.945
REMARK INTER + INTRA:          -6.630
REMARK INTER:                  -6.630
REMARK INTRA:                   0.000
REMARK UNBOUND:                 0.000
REMARK  0 active torsions:
REMARK  status: ('A' for Active; 'I' for Inactive)
ROOT
HETATM    1  N1  LFN     0       3.411  -2.328   5.467  0.00  0.00    -0.173 NA
HETATM    2  C2  LFN     0       4.239  -3.368   5.394  0.00  0.00     0.350 A 
HETATM    3  C10 LFN     0       3.306  -1.457   4.479  0.00  0.00     0.170 A 
HETATM    4  O2  LFN     0       4.288  -4.128   6.345  0.00  0.00    -0.244 OA
HETATM    5  N3  LFN     0       5.021  -3.632   4.337  0.00  0.00    -0.272 N 
HETATM    6  C4  LFN     0       5.020  -2.832   3.245  0.00  0.00     0.282 A 
HETATM    7  O4  LFN     0       5.730  -3.069   2.286  0.00  0.00    -0.265 OA
HETATM    8  C4A LFN     0       4.120  -1.659   3.269  0.00  0.00     0.171 A 
HETATM    9  N5  LFN     0       4.040  -0.820   2.267  0.00  0.00    -0.237 NA
HETATM   10  C5A LFN     0       3.213   0.233   2.321  0.00  0.00     0.085 A 
HETATM   11  C6  LFN     0       3.142   1.123   1.231  0.00  0.00     0.041 A 
HETATM   12  C9A LFN     0       2.407   0.467   3.458  0.00  0.00     0.065 A 
HETATM   13  C7  LFN     0       2.302   2.194   1.283  0.00  0.00    -0.054 A 
HETATM   14  C7M LFN     0       2.231   3.143   0.115  0.00  0.00     0.049 C 
HETATM   15  C8  LFN     0       1.510   2.423   2.403  0.00  0.00    -0.054 A 
HETATM   16  C8M LFN     0       0.589   3.616   2.436  0.00  0.00     0.049 C 
HETATM   17  C9  LFN     0       1.558   1.570   3.484  0.00  0.00     0.039 A 
HETATM   18  N10 LFN     0       2.459  -0.391   4.536  0.00  0.00    -0.332 N 
HETATM   19  C1' LFN     0       1.627  -0.157   5.719  0.00  0.00     0.158 C 
HETATM   20  H3  LFN     0       5.600  -4.410   4.357  0.00  0.00     0.174 HD
ENDROOT
TORSDOF 0
ENDMDL
MODEL 4
REMARK VINA RESULT:    -6.553     11.435     13.675
REMARK INTER + INTRA:          -6.553
REMARK INTER:                  -6.553
REMARK INTRA:                   0.000
REMARK UNBOUND:                 0.000
REMARK  0 active torsions:
REMARK  status: ('A' for Active; 'I' for Inactive)
ROOT
HETATM    1  N1  LFN     0       6.407  -4.319   2.562  0.00  0.00    -0.173 NA
HETATM    2  C2  LFN     0       7.622  -4.729   2.207  0.00  0.00     0.350 A 
HETATM    3  C10 LFN     0       5.930  -3.151   2.168  0.00  0.00     0.170 A 
HETATM    4  O2  LFN     0       8.000  -5.815   2.611  0.00  0.00    -0.244 OA
HETATM    5  N3  LFN     0       8.457  -4.022   1.431  0.00  0.00    -0.272 N 
HETATM    6  C4  LFN     0       8.106  -2.809   0.946  0.00  0.00     0.282 A 
HETATM    7  O4  LFN     0       8.862  -2.165   0.242  0.00  0.00    -0.265 OA
HETATM    8  C4A LFN     0       6.766  -2.298   1.308  0.00  0.00     0.171 A 
HETATM    9  N5  LFN     0       6.326  -1.137   0.893  0.00  0.00    -0.237 NA
HETATM   10  C5A LFN     0       5.106  -0.705   1.240  0.00  0.00     0.085 A 
HETATM   11  C6  LFN     0       4.651   0.548   0.783  0.00  0.00     0.041 A 
HETATM   12  C9A LFN     0       4.263  -1.489   2.060  0.00  0.00     0.065 A 
HETATM   13  C7  LFN     0       3.411   0.989   1.134  0.00  0.00    -0.054 A 
HETATM   14  C7M LFN     0       2.931   2.330   0.642  0.00  0.00     0.049 C 
HETATM   15  C8  LFN     0       2.583   0.216   1.941  0.00  0.00    -0.054 A 
HETATM   16  C8M LFN     0       1.215   0.728   2.315  0.00  0.00     0.049 C 
HETATM   17  C9  LFN     0       3.000  -1.013   2.403  0.00  0.00     0.039 A 
HETATM   18  N10 LFN     0       4.685  -2.719   2.518  0.00  0.00    -0.332 N 
HETATM   19  C1' LFN     0       3.819  -3.539   3.369  0.00  0.00     0.158 C 
HETATM   20  H3  LFN     0       9.329  -4.388   1.214  0.00  0.00     0.174 HD
ENDROOT
TORSDOF 0
ENDMDL
MODEL 5
REMARK VINA RESULT:    -6.344     13.211     15.466
REMARK INTER + INTRA:          -6.344
REMARK INTER:                  -6.344
REMARK INTRA:                   0.000
REMARK UNBOUND:                 0.000
REMARK  0 active torsions:
REMARK  status: ('A' for Active; 'I' for Inactive)
ROOT
HETATM    1  N1  LFN     0       2.435   1.287   2.115  0.00  0.00    -0.173 NA
HETATM    2  C2  LFN     0       1.439   1.657   2.916  0.00  0.00     0.350 A 
HETATM    3  C10 LFN     0       3.213   0.259   2.409  0.00  0.00     0.170 A 
HETATM    4  O2  LFN     0       0.766   2.617   2.586  0.00  0.00    -0.244 OA
HETATM    5  N3  LFN     0       1.130   1.039   4.066  0.00  0.00    -0.272 N 
HETATM    6  C4  LFN     0       1.834  -0.034   4.497  0.00  0.00     0.282 A 
HETATM    7  O4  LFN     0       1.556  -0.596   5.539  0.00  0.00    -0.265 OA
HETATM    8  C4A LFN     0       2.955  -0.492   3.648  0.00  0.00     0.171 A 
HETATM    9  N5  LFN     0       3.701  -1.519   3.970  0.00  0.00    -0.237 NA
HETATM   10  C5A LFN     0       4.708  -1.908   3.177  0.00  0.00     0.085 A 
HETATM   11  C6  LFN     0       5.499  -3.015   3.542  0.00  0.00     0.041 A 
HETATM   12  C9A LFN     0       4.993  -1.223   1.975  0.00  0.00     0.065 A 
HETATM   13  C7  LFN     0       6.523  -3.413   2.738  0.00  0.00    -0.054 A 
HETATM   14  C7M LFN     0       7.365  -4.599   3.135  0.00  0.00     0.049 C 
HETATM   15  C8  LFN     0       6.803  -2.737   1.555  0.00  0.00    -0.054 A 
HETATM   16  C8M LFN     0       7.942  -3.197   0.683  0.00  0.00     0.049 C 
HETATM   17  C9  LFN     0       6.047  -1.651   1.172  0.00  0.00     0.039 A 
HETATM   18  N10 LFN     0       4.233  -0.136   1.596  0.00  0.00    -0.332 N 
HETATM   19  C1' LFN     0       4.521   0.581   0.351  0.00  0.00     0.158 C 
HETATM   20  H3  LFN     0       0.389   1.367   4.598  0.00  0.00     0.174 HD
ENDROOT
TORSDOF 0
ENDMDL
MODEL 6
REMARK VINA RESULT:    -6.282      3.127      6.293
REMARK INTER + INTRA:          -6.282
REMARK INTER:                  -6.282
REMARK INTRA:                   0.000
REMARK UNBOUND:                 0.000
REMARK  0 active torsions:
REMARK  status: ('A' for Active; 'I' for Inactive)
ROOT
HETATM    1  N1  LFN     0       4.835 -12.221  -6.533  0.00  0.00    -0.173 NA
HETATM    2  C2  LFN     0       4.321 -12.495  -7.730  0.00  0.00     0.350 A 
HETATM    3  C10 LFN     0       5.527 -13.120  -5.856  0.00  0.00     0.170 A 
HETATM    4  O2  LFN     0       3.690 -11.620  -8.295  0.00  0.00    -0.244 OA
HETATM    5  N3  LFN     0       4.457 -13.675  -8.353  0.00  0.00    -0.272 N 
HETATM    6  C4  LFN     0       5.145 -14.693  -7.786  0.00  0.00     0.282 A 
HETATM    7  O4  LFN     0       5.268 -15.764  -8.349  0.00  0.00    -0.265 OA
HETATM    8  C4A LFN     0       5.738 -14.448  -6.454  0.00  0.00     0.171 A 
HETATM    9  N5  LFN     0       6.423 -15.364  -5.816  0.00  0.00    -0.237 NA
HETATM   10  C5A LFN     0       6.948 -15.108  -4.610  0.00  0.00     0.085 A 
HETATM   11  C6  LFN     0       7.682 -16.106  -3.939  0.00  0.00     0.041 A 
HETATM   12  C9A LFN     0       6.778 -13.846  -3.995  0.00  0.00     0.065 A 
HETATM   13  C7  LFN     0       8.217 -15.849  -2.714  0.00  0.00    -0.054 A 
HETATM   14  C7M LFN     0       9.000 -16.922  -2.002  0.00  0.00     0.049 C 
HETATM   15  C8  LFN     0       8.048 -14.607  -2.110  0.00  0.00    -0.054 A 
HETATM   16  C8M LFN     0       8.650 -14.348  -0.753  0.00  0.00     0.049 C 
HETATM   17  C9  LFN     0       7.336 -13.611  -2.742  0.00  0.00     0.039 A 
HETATM   18  N10 LFN     0       6.065 -12.853  -4.632  0.00  0.00    -0.332 N 
HETATM   19  C1' LFN     0       5.883 -11.542  -4.003  0.00  0.00     0.158 C 
HETATM   20  H3  LFN     0       4.054 -13.801  -9.226  0.00  0.00     0.174 HD
ENDROOT
TORSDOF 0
ENDMDL
MODEL 7
REMARK VINA RESULT:    -6.253     12.418     14.771
REMARK INTER + INTRA:          -6.253
REMARK INTER:                  -6.253
REMARK INTRA:                   0.000
REMARK UNBOUND:                 0.000
REMARK  0 active torsions:
REMARK  status: ('A' for Active; 'I' for Inactive)
ROOT
HETATM    1  N1  LFN     0       6.031  -3.446   2.914  0.00  0.00    -0.173 NA
HETATM    2  C2  LFN     0       7.109  -3.691   2.173  0.00  0.00     0.350 A 
HETATM    3  C10 LFN     0       5.277  -2.381   2.706  0.00  0.00     0.170 A 
HETATM    4  O2  LFN     0       7.760  -4.690   2.425  0.00  0.00    -0.244 OA
HETATM    5  N3  LFN     0       7.522  -2.908   1.166  0.00  0.00    -0.272 N 
HETATM    6  C4  LFN     0       6.849  -1.783   0.829  0.00  0.00     0.282 A 
HETATM    7  O4  LFN     0       7.222  -1.072  -0.083  0.00  0.00    -0.265 OA
HETATM    8  C4A LFN     0       5.642  -1.457   1.619  0.00  0.00     0.171 A 
HETATM    9  N5  LFN     0       4.917  -0.394   1.378  0.00  0.00    -0.237 NA
HETATM   10  C5A LFN     0       3.828  -0.129   2.113  0.00  0.00     0.085 A 
HETATM   11  C6  LFN     0       3.061   1.021   1.838  0.00  0.00     0.041 A 
HETATM   12  C9A LFN     0       3.433  -0.987   3.164  0.00  0.00     0.065 A 
HETATM   13  C7  LFN     0       1.954   1.293   2.583  0.00  0.00    -0.054 A 
HETATM   14  C7M LFN     0       1.138   2.524   2.283  0.00  0.00     0.049 C 
HETATM   15  C8  LFN     0       1.567   0.448   3.618  0.00  0.00    -0.054 A 
HETATM   16  C8M LFN     0       0.338   0.771   4.427  0.00  0.00     0.049 C 
HETATM   17  C9  LFN     0       2.297  -0.684   3.909  0.00  0.00     0.039 A 
HETATM   18  N10 LFN     0       4.167  -2.118   3.452  0.00  0.00    -0.332 N 
HETATM   19  C1' LFN     0       3.766  -3.014   4.540  0.00  0.00     0.158 C 
HETATM   20  H3  LFN     0       8.319  -3.153   0.670  0.00  0.00     0.174 HD
ENDROOT
TORSDOF 0
ENDMDL
MODEL 8
REMARK VINA RESULT:    -6.154     12.963     15.171
REMARK INTER + INTRA:          -6.154
REMARK INTER:                  -6.154
REMARK INTRA:                   0.000
REMARK UNBOUND:                 0.000
REMARK  0 active torsions:
REMARK  status: ('A' for Active; 'I' for Inactive)
ROOT
HETATM    1  N1  LFN     0       6.115  -2.583   2.156  0.00  0.00    -0.173 NA
HETATM    2  C2  LFN     0       6.323  -3.569   3.025  0.00  0.00     0.350 A 
HETATM    3  C10 LFN     0       5.151  -1.696   2.334  0.00  0.00     0.170 A 
HETATM    4  O2  LFN     0       7.226  -4.354   2.795  0.00  0.00    -0.244 OA
HETATM    5  N3  LFN     0       5.600  -3.753   4.140  0.00  0.00    -0.272 N 
HETATM    6  C4  LFN     0       4.581  -2.921   4.461  0.00  0.00     0.282 A 
HETATM    7  O4  LFN     0       3.924  -3.086   5.471  0.00  0.00    -0.265 OA
HETATM    8  C4A LFN     0       4.302  -1.806   3.532  0.00  0.00     0.171 A 
HETATM    9  N5  LFN     0       3.340  -0.943   3.745  0.00  0.00    -0.237 NA
HETATM   10  C5A LFN     0       3.115   0.057   2.883  0.00  0.00     0.085 A 
HETATM   11  C6  LFN     0       2.075   0.975   3.131  0.00  0.00     0.041 A 
HETATM   12  C9A LFN     0       3.906   0.208   1.721  0.00  0.00     0.065 A 
HETATM   13  C7  LFN     0       1.843   1.992   2.256  0.00  0.00    -0.054 A 
HETATM   14  C7M LFN     0       0.730   2.970   2.528  0.00  0.00     0.049 C 
HETATM   15  C8  LFN     0       2.623   2.139   1.113  0.00  0.00    -0.054 A 
HETATM   16  C8M LFN     0       2.346   3.274   0.161  0.00  0.00     0.049 C 
HETATM   17  C9  LFN     0       3.647   1.257   0.844  0.00  0.00     0.039 A 
HETATM   18  N10 LFN     0       4.930  -0.677   1.457  0.00  0.00    -0.332 N 
HETATM   19  C1' LFN     0       5.756  -0.529   0.256  0.00  0.00     0.158 C 
HETATM   20  H3  LFN     0       5.811  -4.495   4.727  0.00  0.00     0.174 HD
ENDROOT
TORSDOF 0
ENDMDL
MODEL 9
REMARK VINA RESULT:    -6.087     13.331     15.167
REMARK INTER + INTRA:          -6.087
REMARK INTER:                  -6.087
REMARK INTRA:                   0.000
REMARK UNBOUND:                 0.000
REMARK  0 active torsions:
REMARK  status: ('A' for Active; 'I' for Inactive)
ROOT
HETATM    1  N1  LFN     0       1.967  -0.497   4.077  0.00  0.00    -0.173 NA
HETATM    2  C2  LFN     0       1.154   0.516   3.789  0.00  0.00     0.350 A 
HETATM    3  C10 LFN     0       3.048  -0.742   3.356  0.00  0.00     0.170 A 
HETATM    4  O2  LFN     0       0.173   0.680   4.492  0.00  0.00    -0.244 OA
HETATM    5  N3  LFN     0       1.347   1.369   2.771  0.00  0.00    -0.272 N 
HETATM    6  C4  LFN     0       2.414   1.249   1.947  0.00  0.00     0.282 A 
HETATM    7  O4  LFN     0       2.591   2.020   1.024  0.00  0.00    -0.265 OA
HETATM    8  C4A LFN     0       3.354   0.140   2.218  0.00  0.00     0.171 A 
HETATM    9  N5  LFN     0       4.418  -0.068   1.484  0.00  0.00    -0.237 NA
HETATM   10  C5A LFN     0       5.250  -1.082   1.757  0.00  0.00     0.085 A 
HETATM   11  C6  LFN     0       6.390  -1.289   0.955  0.00  0.00     0.041 A 
HETATM   12  C9A LFN     0       5.003  -1.953   2.842  0.00  0.00     0.065 A 
HETATM   13  C7  LFN     0       7.237  -2.318   1.230  0.00  0.00    -0.054 A 
HETATM   14  C7M LFN     0       8.454  -2.534   0.368  0.00  0.00     0.049 C 
HETATM   15  C8  LFN     0       6.992  -3.175   2.299  0.00  0.00    -0.054 A 
HETATM   16  C8M LFN     0       7.945  -4.308   2.582  0.00  0.00     0.049 C 
HETATM   17  C9  LFN     0       5.885  -2.998   3.101  0.00  0.00     0.039 A 
HETATM   18  N10 LFN     0       3.894  -1.771   3.642  0.00  0.00    -0.332 N 
HETATM   19  C1' LFN     0       3.629  -2.669   4.769  0.00  0.00     0.158 C 
HETATM   20  H3  LFN     0       0.709   2.084   2.623  0.00  0.00     0.174 HD
ENDROOT
TORSDOF 0
ENDMDL
MODEL 10
REMARK VINA RESULT:    -6.080     12.852     15.692
REMARK INTER + INTRA:          -6.080
REMARK INTER:                  -6.080
REMARK INTRA:                   0.000
REMARK UNBOUND:                 0.000
REMARK  0 active torsions:
REMARK  status: ('A' for Active; 'I' for Inactive)
ROOT
HETATM    1  N1  LFN     0       2.670   1.446   3.312  0.00  0.00    -0.173 NA
HETATM    2  C2  LFN     0       1.529   1.716   2.682  0.00  0.00     0.350 A 
HETATM    3  C10 LFN     0       3.324   0.316   3.103  0.00  0.00     0.170 A 
HETATM    4  O2  LFN     0       0.978   2.774   2.927  0.00  0.00    -0.244 OA
HETATM    5  N3  LFN     0       0.949   0.895   1.794  0.00  0.00    -0.272 N 
HETATM    6  C4  LFN     0       1.504  -0.296   1.472  0.00  0.00     0.282 A 
HETATM    7  O4  LFN     0       0.979  -1.042   0.668  0.00  0.00    -0.265 OA
HETATM    8  C4A LFN     0       2.774  -0.653   2.141  0.00  0.00     0.171 A 
HETATM    9  N5  LFN     0       3.395  -1.780   1.904  0.00  0.00    -0.237 NA
HETATM   10  C5A LFN     0       4.545  -2.072   2.528  0.00  0.00     0.085 A 
HETATM   11  C6  LFN     0       5.198  -3.290   2.259  0.00  0.00     0.041 A 
HETATM   12  C9A LFN     0       5.117  -1.172   3.456  0.00  0.00     0.065 A 
HETATM   13  C7  LFN     0       6.367  -3.589   2.891  0.00  0.00    -0.054 A 
HETATM   14  C7M LFN     0       7.060  -4.895   2.598  0.00  0.00     0.049 C 
HETATM   15  C8  LFN     0       6.928  -2.702   3.804  0.00  0.00    -0.054 A 
HETATM   16  C8M LFN     0       8.223  -3.057   4.490  0.00  0.00     0.049 C 
HETATM   17  C9  LFN     0       6.312  -1.503   4.087  0.00  0.00     0.039 A 
HETATM   18  N10 LFN     0       4.497   0.028   3.735  0.00  0.00    -0.332 N 
HETATM   19  C1' LFN     0       5.082   0.967   4.696  0.00  0.00     0.158 C 
HETATM   20  H3  LFN     0       0.116   1.161   1.375  0.00  0.00     0.174 HD
ENDROOT
TORSDOF 0
ENDMDL
