MODEL 1
REMARK VINA RESULT:    -8.069      0.000      0.000
REMARK INTER + INTRA:          -8.069
REMARK INTER:                  -8.069
REMARK INTRA:                   0.000
REMARK UNBOUND:                 0.000
REMARK  Name = /home/esp/scriptDevelopment/voidDock/outputs/134189607_Lumoflavin/Lumoflavin.pdb
REMARK  3 active torsions:
REMARK  status: ('A' for Active; 'I' for Inactive)
REMARK    1  A    between atoms: C7_13  and  C7M_14
REMARK    2  A    between atoms: C8_15  and  C8M_16
REMARK    3  A    between atoms: N10_18  and  C1'_19
REMARK                            x       y       z     vdW  Elec       q    Type
REMARK                         _______ _______ _______ _____ _____    ______ ____
ROOT
ATOM      1  N1  LFN     0      -9.003  -1.106   8.280  0.00  0.00    +0.000 N 
ATOM      2  C2  LFN     0      -7.905  -1.488   8.927  0.00  0.00    +0.000 A 
ATOM      3  C10 LFN     0      -9.103  -1.211   6.966  0.00  0.00    +0.000 A 
ATOM      4  O2  LFN     0      -7.881  -1.358  10.138  0.00  0.00    +0.000 OA
ATOM      5  N3  LFN     0      -6.823  -2.008   8.329  0.00  0.00    +0.000 N 
ATOM      6  C4  LFN     0      -6.777  -2.182   6.988  0.00  0.00    +0.000 A 
ATOM      7  O4  LFN     0      -5.797  -2.652   6.443  0.00  0.00    +0.000 OA
ATOM      8  C4A LFN     0      -7.970  -1.775   6.213  0.00  0.00    +0.000 A 
ATOM      9  N5  LFN     0      -8.033  -1.899   4.912  0.00  0.00    +0.000 N 
ATOM     10  C5A LFN     0      -9.129  -1.521   4.241  0.00  0.00    +0.000 C 
ATOM     11  C6  LFN     0      -9.177  -1.663   2.840  0.00  0.00    +0.000 C 
ATOM     12  C9A LFN     0     -10.245  -0.979   4.918  0.00  0.00    +0.000 C 
ATOM     13  C7  LFN     0     -10.290  -1.280   2.156  0.00  0.00    +0.000 C 
ATOM     14  C7M LFN     0     -10.334  -1.434   0.657  0.00  0.00    +0.000 C 
ATOM     15  C8  LFN     0     -11.388  -0.746   2.824  0.00  0.00    +0.000 C 
ATOM     16  C8M LFN     0     -12.608  -0.330   2.043  0.00  0.00    +0.000 C 
ATOM     17  C9  LFN     0     -11.370  -0.595   4.193  0.00  0.00    +0.000 C 
ATOM     18  N10 LFN     0     -10.223  -0.831   6.289  0.00  0.00    +0.000 N 
ATOM     19  C1' LFN     0     -11.375  -0.270   7.000  0.00  0.00    +0.000 C 
ATOM     20  H3  LFN     0      -6.058  -2.263   8.868  0.00  0.00    +0.000 HD
ENDROOT
TORSDOF 0
ENDMDL
MODEL 2
REMARK VINA RESULT:    -7.672      2.993      6.283
REMARK INTER + INTRA:          -7.672
REMARK INTER:                  -7.672
REMARK INTRA:                   0.000
REMARK UNBOUND:                 0.000
REMARK  Name = /home/esp/scriptDevelopment/voidDock/outputs/134189607_Lumoflavin/Lumoflavin.pdb
REMARK  3 active torsions:
REMARK  status: ('A' for Active; 'I' for Inactive)
REMARK    1  A    between atoms: C7_13  and  C7M_14
REMARK    2  A    between atoms: C8_15  and  C8M_16
REMARK    3  A    between atoms: N10_18  and  C1'_19
REMARK                            x       y       z     vdW  Elec       q    Type
REMARK                         _______ _______ _______ _____ _____    ______ ____
ROOT
ATOM      1  N1  LFN     0      -9.341  -1.050   2.672  0.00  0.00    +0.000 N 
ATOM      2  C2  LFN     0     -10.357  -0.872   1.831  0.00  0.00    +0.000 A 
ATOM      3  C10 LFN     0      -9.539  -1.218   3.968  0.00  0.00    +0.000 A 
ATOM      4  O2  LFN     0     -10.101  -0.718   0.650  0.00  0.00    +0.000 OA
ATOM      5  N3  LFN     0     -11.646  -0.853   2.202  0.00  0.00    +0.000 N 
ATOM      6  C4  LFN     0     -12.006  -1.017   3.496  0.00  0.00    +0.000 A 
ATOM      7  O4  LFN     0     -13.173  -0.999   3.836  0.00  0.00    +0.000 OA
ATOM      8  C4A LFN     0     -10.919  -1.218   4.479  0.00  0.00    +0.000 A 
ATOM      9  N5  LFN     0     -11.155  -1.386   5.756  0.00  0.00    +0.000 N 
ATOM     10  C5A LFN     0     -10.147  -1.566   6.620  0.00  0.00    +0.000 C 
ATOM     11  C6  LFN     0     -10.422  -1.746   7.990  0.00  0.00    +0.000 C 
ATOM     12  C9A LFN     0      -8.804  -1.580   6.178  0.00  0.00    +0.000 C 
ATOM     13  C7  LFN     0      -9.399  -1.930   8.870  0.00  0.00    +0.000 C 
ATOM     14  C7M LFN     0      -9.700  -2.121  10.334  0.00  0.00    +0.000 C 
ATOM     15  C8  LFN     0      -8.078  -1.942   8.433  0.00  0.00    +0.000 C 
ATOM     16  C8M LFN     0      -6.964  -2.147   9.427  0.00  0.00    +0.000 C 
ATOM     17  C9  LFN     0      -7.778  -1.769   7.099  0.00  0.00    +0.000 C 
ATOM     18  N10 LFN     0      -8.510  -1.407   4.842  0.00  0.00    +0.000 N 
ATOM     19  C1' LFN     0      -7.121  -1.419   4.374  0.00  0.00    +0.000 C 
ATOM     20  H3  LFN     0     -12.332  -0.718   1.531  0.00  0.00    +0.000 HD
ENDROOT
TORSDOF 0
ENDMDL
MODEL 3
REMARK VINA RESULT:    -7.589      1.113      2.814
REMARK INTER + INTRA:          -7.589
REMARK INTER:                  -7.589
REMARK INTRA:                   0.000
REMARK UNBOUND:                 0.000
REMARK  Name = /home/esp/scriptDevelopment/voidDock/outputs/134189607_Lumoflavin/Lumoflavin.pdb
REMARK  3 active torsions:
REMARK  status: ('A' for Active; 'I' for Inactive)
REMARK    1  A    between atoms: C7_13  and  C7M_14
REMARK    2  A    between atoms: C8_15  and  C8M_16
REMARK    3  A    between atoms: N10_18  and  C1'_19
REMARK                            x       y       z     vdW  Elec       q    Type
REMARK                         _______ _______ _______ _____ _____    ______ ____
ROOT
ATOM      1  N1  LFN     0      -7.448  -2.010   7.372  0.00  0.00    +0.000 N 
ATOM      2  C2  LFN     0      -7.586  -1.840   8.685  0.00  0.00    +0.000 A 
ATOM      3  C10 LFN     0      -8.406  -1.672   6.527  0.00  0.00    +0.000 A 
ATOM      4  O2  LFN     0      -6.663  -2.179   9.405  0.00  0.00    +0.000 OA
ATOM      5  N3  LFN     0      -8.677  -1.319   9.264  0.00  0.00    +0.000 N 
ATOM      6  C4  LFN     0      -9.741  -0.922   8.528  0.00  0.00    +0.000 A 
ATOM      7  O4  LFN     0     -10.732  -0.450   9.051  0.00  0.00    +0.000 OA
ATOM      8  C4A LFN     0      -9.647  -1.086   7.061  0.00  0.00    +0.000 A 
ATOM      9  N5  LFN     0     -10.617  -0.735   6.256  0.00  0.00    +0.000 N 
ATOM     10  C5A LFN     0     -10.498  -0.897   4.931  0.00  0.00    +0.000 C 
ATOM     11  C6  LFN     0     -11.554  -0.512   4.081  0.00  0.00    +0.000 C 
ATOM     12  C9A LFN     0      -9.325  -1.450   4.369  0.00  0.00    +0.000 C 
ATOM     13  C7  LFN     0     -11.436  -0.676   2.734  0.00  0.00    +0.000 C 
ATOM     14  C7M LFN     0     -12.569  -0.262   1.831  0.00  0.00    +0.000 C 
ATOM     15  C8  LFN     0     -10.281  -1.221   2.182  0.00  0.00    +0.000 C 
ATOM     16  C8M LFN     0     -10.175  -1.392   0.689  0.00  0.00    +0.000 C 
ATOM     17  C9  LFN     0      -9.232  -1.606   2.988  0.00  0.00    +0.000 C 
ATOM     18  N10 LFN     0      -8.278  -1.834   5.180  0.00  0.00    +0.000 N 
ATOM     19  C1' LFN     0      -7.059  -2.408   4.606  0.00  0.00    +0.000 C 
ATOM     20  H3  LFN     0      -8.705  -1.227  10.229  0.00  0.00    +0.000 HD
ENDROOT
TORSDOF 0
ENDMDL
MODEL 4
REMARK VINA RESULT:    -7.440      3.011      5.743
REMARK INTER + INTRA:          -7.440
REMARK INTER:                  -7.440
REMARK INTRA:                   0.000
REMARK UNBOUND:                 0.000
REMARK  Name = /home/esp/scriptDevelopment/voidDock/outputs/134189607_Lumoflavin/Lumoflavin.pdb
REMARK  3 active torsions:
REMARK  status: ('A' for Active; 'I' for Inactive)
REMARK    1  A    between atoms: C7_13  and  C7M_14
REMARK    2  A    between atoms: C8_15  and  C8M_16
REMARK    3  A    between atoms: N10_18  and  C1'_19
REMARK                            x       y       z     vdW  Elec       q    Type
REMARK                         _______ _______ _______ _____ _____    ______ ____
ROOT
ATOM      1  N1  LFN     0     -12.213  -0.686   3.453  0.00  0.00    +0.000 N 
ATOM      2  C2  LFN     0     -11.987  -0.500   2.155  0.00  0.00    +0.000 A 
ATOM      3  C10 LFN     0     -11.234  -0.989   4.288  0.00  0.00    +0.000 A 
ATOM      4  O2  LFN     0     -12.937  -0.228   1.442  0.00  0.00    +0.000 OA
ATOM      5  N3  LFN     0     -10.777  -0.592   1.582  0.00  0.00    +0.000 N 
ATOM      6  C4  LFN     0      -9.676  -0.891   2.310  0.00  0.00    +0.000 A 
ATOM      7  O4  LFN     0      -8.579  -0.975   1.793  0.00  0.00    +0.000 OA
ATOM      8  C4A LFN     0      -9.865  -1.110   3.760  0.00  0.00    +0.000 A 
ATOM      9  N5  LFN     0      -8.869  -1.404   4.557  0.00  0.00    +0.000 N 
ATOM     10  C5A LFN     0      -9.075  -1.595   5.868  0.00  0.00    +0.000 C 
ATOM     11  C6  LFN     0      -7.990  -1.911   6.708  0.00  0.00    +0.000 C 
ATOM     12  C9A LFN     0     -10.370  -1.486   6.423  0.00  0.00    +0.000 C 
ATOM     13  C7  LFN     0      -8.196  -2.106   8.040  0.00  0.00    +0.000 C 
ATOM     14  C7M LFN     0      -7.031  -2.443   8.934  0.00  0.00    +0.000 C 
ATOM     15  C8  LFN     0      -9.471  -1.998   8.586  0.00  0.00    +0.000 C 
ATOM     16  C8M LFN     0      -9.673  -2.218  10.063  0.00  0.00    +0.000 C 
ATOM     17  C9  LFN     0     -10.552  -1.690   7.788  0.00  0.00    +0.000 C 
ATOM     18  N10 LFN     0     -11.448  -1.177   5.621  0.00  0.00    +0.000 N 
ATOM     19  C1' LFN     0     -12.794  -1.061   6.188  0.00  0.00    +0.000 C 
ATOM     20  H3  LFN     0     -10.691  -0.442   0.628  0.00  0.00    +0.000 HD
ENDROOT
TORSDOF 0
ENDMDL
MODEL 5
REMARK VINA RESULT:    -7.108     13.543     15.606
REMARK INTER + INTRA:          -7.108
REMARK INTER:                  -7.108
REMARK INTRA:                   0.000
REMARK UNBOUND:                 0.000
REMARK  Name = /home/esp/scriptDevelopment/voidDock/outputs/134189607_Lumoflavin/Lumoflavin.pdb
REMARK  3 active torsions:
REMARK  status: ('A' for Active; 'I' for Inactive)
REMARK    1  A    between atoms: C7_13  and  C7M_14
REMARK    2  A    between atoms: C8_15  and  C8M_16
REMARK    3  A    between atoms: N10_18  and  C1'_19
REMARK                            x       y       z     vdW  Elec       q    Type
REMARK                         _______ _______ _______ _____ _____    ______ ____
ROOT
ATOM      1  N1  LFN     0       2.363  -9.548   4.118  0.00  0.00    +0.000 N 
ATOM      2  C2  LFN     0       1.533  -9.651   3.084  0.00  0.00    +0.000 A 
ATOM      3  C10 LFN     0       2.046 -10.023   5.310  0.00  0.00    +0.000 A 
ATOM      4  O2  LFN     0       1.889  -9.187   2.016  0.00  0.00    +0.000 OA
ATOM      5  N3  LFN     0       0.327 -10.235   3.144  0.00  0.00    +0.000 N 
ATOM      6  C4  LFN     0      -0.136 -10.773   4.296  0.00  0.00    +0.000 A 
ATOM      7  O4  LFN     0      -1.229 -11.302   4.354  0.00  0.00    +0.000 OA
ATOM      8  C4A LFN     0       0.744 -10.688   5.483  0.00  0.00    +0.000 A 
ATOM      9  N5  LFN     0       0.395 -11.175   6.646  0.00  0.00    +0.000 N 
ATOM     10  C5A LFN     0       1.217 -11.081   7.701  0.00  0.00    +0.000 C 
ATOM     11  C6  LFN     0       0.823 -11.612   8.945  0.00  0.00    +0.000 C 
ATOM     12  C9A LFN     0       2.479 -10.456   7.585  0.00  0.00    +0.000 C 
ATOM     13  C7  LFN     0       1.656 -11.519  10.018  0.00  0.00    +0.000 C 
ATOM     14  C7M LFN     0       1.228 -12.088  11.346  0.00  0.00    +0.000 C 
ATOM     15  C8  LFN     0       2.898 -10.903   9.903  0.00  0.00    +0.000 C 
ATOM     16  C8M LFN     0       3.802 -10.812  11.105  0.00  0.00    +0.000 C 
ATOM     17  C9  LFN     0       3.311 -10.375   8.699  0.00  0.00    +0.000 C 
ATOM     18  N10 LFN     0       2.888  -9.930   6.378  0.00  0.00    +0.000 N 
ATOM     19  C1' LFN     0       4.194  -9.280   6.248  0.00  0.00    +0.000 C 
ATOM     20  H3  LFN     0      -0.224 -10.272   2.347  0.00  0.00    +0.000 HD
ENDROOT
TORSDOF 0
ENDMDL
MODEL 6
REMARK VINA RESULT:    -6.897     11.189     13.240
REMARK INTER + INTRA:          -6.897
REMARK INTER:                  -6.897
REMARK INTRA:                   0.000
REMARK UNBOUND:                 0.000
REMARK  Name = /home/esp/scriptDevelopment/voidDock/outputs/134189607_Lumoflavin/Lumoflavin.pdb
REMARK  3 active torsions:
REMARK  status: ('A' for Active; 'I' for Inactive)
REMARK    1  A    between atoms: C7_13  and  C7M_14
REMARK    2  A    between atoms: C8_15  and  C8M_16
REMARK    3  A    between atoms: N10_18  and  C1'_19
REMARK                            x       y       z     vdW  Elec       q    Type
REMARK                         _______ _______ _______ _____ _____    ______ ____
ROOT
ATOM      1  N1  LFN     0       2.808   1.767  -0.194  0.00  0.00    +0.000 N 
ATOM      2  C2  LFN     0       2.513   0.583  -0.726  0.00  0.00    +0.000 A 
ATOM      3  C10 LFN     0       2.268   2.168   0.944  0.00  0.00    +0.000 A 
ATOM      4  O2  LFN     0       3.044   0.281  -1.779  0.00  0.00    +0.000 OA
ATOM      5  N3  LFN     0       1.667  -0.299  -0.172  0.00  0.00    +0.000 N 
ATOM      6  C4  LFN     0       1.040  -0.032   0.997  0.00  0.00    +0.000 A 
ATOM      7  O4  LFN     0       0.272  -0.830   1.500  0.00  0.00    +0.000 OA
ATOM      8  C4A LFN     0       1.328   1.270   1.636  0.00  0.00    +0.000 A 
ATOM      9  N5  LFN     0       0.776   1.630   2.767  0.00  0.00    +0.000 N 
ATOM     10  C5A LFN     0       1.060   2.818   3.319  0.00  0.00    +0.000 C 
ATOM     11  C6  LFN     0       0.456   3.186   4.537  0.00  0.00    +0.000 C 
ATOM     12  C9A LFN     0       1.959   3.712   2.696  0.00  0.00    +0.000 C 
ATOM     13  C7  LFN     0       0.742   4.392   5.100  0.00  0.00    +0.000 C 
ATOM     14  C7M LFN     0       0.092   4.779   6.404  0.00  0.00    +0.000 C 
ATOM     15  C8  LFN     0       1.628   5.272   4.486  0.00  0.00    +0.000 C 
ATOM     16  C8M LFN     0       1.928   6.601   5.130  0.00  0.00    +0.000 C 
ATOM     17  C9  LFN     0       2.234   4.939   3.294  0.00  0.00    +0.000 C 
ATOM     18  N10 LFN     0       2.564   3.374   1.504  0.00  0.00    +0.000 N 
ATOM     19  C1' LFN     0       3.498   4.295   0.851  0.00  0.00    +0.000 C 
ATOM     20  H3  LFN     0       1.502  -1.144  -0.619  0.00  0.00    +0.000 HD
ENDROOT
TORSDOF 0
ENDMDL
MODEL 7
REMARK VINA RESULT:    -6.872     10.046     11.109
REMARK INTER + INTRA:          -6.872
REMARK INTER:                  -6.872
REMARK INTRA:                   0.000
REMARK UNBOUND:                 0.000
REMARK  Name = /home/esp/scriptDevelopment/voidDock/outputs/134189607_Lumoflavin/Lumoflavin.pdb
REMARK  3 active torsions:
REMARK  status: ('A' for Active; 'I' for Inactive)
REMARK    1  A    between atoms: C7_13  and  C7M_14
REMARK    2  A    between atoms: C8_15  and  C8M_16
REMARK    3  A    between atoms: N10_18  and  C1'_19
REMARK                            x       y       z     vdW  Elec       q    Type
REMARK                         _______ _______ _______ _____ _____    ______ ____
ROOT
ATOM      1  N1  LFN     0     -15.333  -9.414   9.199  0.00  0.00    +0.000 N 
ATOM      2  C2  LFN     0     -15.986  -8.376   8.680  0.00  0.00    +0.000 A 
ATOM      3  C10 LFN     0     -14.111  -9.728   8.806  0.00  0.00    +0.000 A 
ATOM      4  O2  LFN     0     -17.111  -8.147   9.086  0.00  0.00    +0.000 OA
ATOM      5  N3  LFN     0     -15.480  -7.566   7.738  0.00  0.00    +0.000 N 
ATOM      6  C4  LFN     0     -14.237  -7.759   7.239  0.00  0.00    +0.000 A 
ATOM      7  O4  LFN     0     -13.777  -7.026   6.384  0.00  0.00    +0.000 OA
ATOM      8  C4A LFN     0     -13.463  -8.898   7.777  0.00  0.00    +0.000 A 
ATOM      9  N5  LFN     0     -12.252  -9.176   7.365  0.00  0.00    +0.000 N 
ATOM     10  C5A LFN     0     -11.578 -10.216   7.874  0.00  0.00    +0.000 C 
ATOM     11  C6  LFN     0     -10.275 -10.497   7.418  0.00  0.00    +0.000 C 
ATOM     12  C9A LFN     0     -12.154 -11.040   8.867  0.00  0.00    +0.000 C 
ATOM     13  C7  LFN     0      -9.588 -11.554   7.933  0.00  0.00    +0.000 C 
ATOM     14  C7M LFN     0      -8.195 -11.849   7.440  0.00  0.00    +0.000 C 
ATOM     15  C8  LFN     0     -10.157 -12.364   8.911  0.00  0.00    +0.000 C 
ATOM     16  C8M LFN     0      -9.375 -13.527   9.465  0.00  0.00    +0.000 C 
ATOM     17  C9  LFN     0     -11.429 -12.113   9.377  0.00  0.00    +0.000 C 
ATOM     18  N10 LFN     0     -13.428 -10.784   9.331  0.00  0.00    +0.000 N 
ATOM     19  C1' LFN     0     -14.034 -11.633  10.360  0.00  0.00    +0.000 C 
ATOM     20  H3  LFN     0     -16.016  -6.828   7.408  0.00  0.00    +0.000 HD
ENDROOT
TORSDOF 0
ENDMDL
MODEL 8
REMARK VINA RESULT:    -6.801     12.029     14.294
REMARK INTER + INTRA:          -6.801
REMARK INTER:                  -6.801
REMARK INTRA:                   0.000
REMARK UNBOUND:                 0.000
REMARK  Name = /home/esp/scriptDevelopment/voidDock/outputs/134189607_Lumoflavin/Lumoflavin.pdb
REMARK  3 active torsions:
REMARK  status: ('A' for Active; 'I' for Inactive)
REMARK    1  A    between atoms: C7_13  and  C7M_14
REMARK    2  A    between atoms: C8_15  and  C8M_16
REMARK    3  A    between atoms: N10_18  and  C1'_19
REMARK                            x       y       z     vdW  Elec       q    Type
REMARK                         _______ _______ _______ _____ _____    ______ ____
ROOT
ATOM      1  N1  LFN     0       4.046 -10.916   5.508  0.00  0.00    +0.000 N 
ATOM      2  C2  LFN     0       4.550 -12.000   6.092  0.00  0.00    +0.000 A 
ATOM      3  C10 LFN     0       2.743 -10.706   5.446  0.00  0.00    +0.000 A 
ATOM      4  O2  LFN     0       5.760 -12.131   6.108  0.00  0.00    +0.000 OA
ATOM      5  N3  LFN     0       3.806 -12.958   6.666  0.00  0.00    +0.000 N 
ATOM      6  C4  LFN     0       2.455 -12.881   6.686  0.00  0.00    +0.000 A 
ATOM      7  O4  LFN     0       1.779 -13.748   7.205  0.00  0.00    +0.000 OA
ATOM      8  C4A LFN     0       1.837 -11.697   6.050  0.00  0.00    +0.000 A 
ATOM      9  N5  LFN     0       0.540 -11.522   6.014  0.00  0.00    +0.000 N 
ATOM     10  C5A LFN     0       0.013 -10.437   5.430  0.00  0.00    +0.000 C 
ATOM     11  C6  LFN     0      -1.385 -10.267   5.401  0.00  0.00    +0.000 C 
ATOM     12  C9A LFN     0       0.840  -9.454   4.840  0.00  0.00    +0.000 C 
ATOM     13  C7  LFN     0      -1.923  -9.165   4.809  0.00  0.00    +0.000 C 
ATOM     14  C7M LFN     0      -3.420  -8.990   4.781  0.00  0.00    +0.000 C 
ATOM     15  C8  LFN     0      -1.108  -8.199   4.228  0.00  0.00    +0.000 C 
ATOM     16  C8M LFN     0      -1.729  -6.989   3.579  0.00  0.00    +0.000 C 
ATOM     17  C9  LFN     0       0.263  -8.338   4.241  0.00  0.00    +0.000 C 
ATOM     18  N10 LFN     0       2.212  -9.598   4.856  0.00  0.00    +0.000 N 
ATOM     19  C1' LFN     0       3.078  -8.585   4.247  0.00  0.00    +0.000 C 
ATOM     20  H3  LFN     0       4.245 -13.721   7.073  0.00  0.00    +0.000 HD
ENDROOT
TORSDOF 0
ENDMDL
MODEL 9
REMARK VINA RESULT:    -6.747     10.233     12.005
REMARK INTER + INTRA:          -6.747
REMARK INTER:                  -6.747
REMARK INTRA:                   0.000
REMARK UNBOUND:                 0.000
REMARK  Name = /home/esp/scriptDevelopment/voidDock/outputs/134189607_Lumoflavin/Lumoflavin.pdb
REMARK  3 active torsions:
REMARK  status: ('A' for Active; 'I' for Inactive)
REMARK    1  A    between atoms: C7_13  and  C7M_14
REMARK    2  A    between atoms: C8_15  and  C8M_16
REMARK    3  A    between atoms: N10_18  and  C1'_19
REMARK                            x       y       z     vdW  Elec       q    Type
REMARK                         _______ _______ _______ _____ _____    ______ ____
ROOT
ATOM      1  N1  LFN     0     -16.657  -7.040   8.122  0.00  0.00    +0.000 N 
ATOM      2  C2  LFN     0     -17.462  -5.994   8.288  0.00  0.00    +0.000 A 
ATOM      3  C10 LFN     0     -16.069  -7.631   9.149  0.00  0.00    +0.000 A 
ATOM      4  O2  LFN     0     -17.966  -5.497   7.297  0.00  0.00    +0.000 OA
ATOM      5  N3  LFN     0     -17.754  -5.453   9.481  0.00  0.00    +0.000 N 
ATOM      6  C4  LFN     0     -17.232  -5.952  10.625  0.00  0.00    +0.000 A 
ATOM      7  O4  LFN     0     -17.495  -5.463  11.707  0.00  0.00    +0.000 OA
ATOM      8  C4A LFN     0     -16.328  -7.116  10.504  0.00  0.00    +0.000 A 
ATOM      9  N5  LFN     0     -15.768  -7.677  11.545  0.00  0.00    +0.000 N 
ATOM     10  C5A LFN     0     -14.954  -8.732  11.400  0.00  0.00    +0.000 C 
ATOM     11  C6  LFN     0     -14.361  -9.321  12.534  0.00  0.00    +0.000 C 
ATOM     12  C9A LFN     0     -14.678  -9.266  10.120  0.00  0.00    +0.000 C 
ATOM     13  C7  LFN     0     -13.534 -10.392  12.388  0.00  0.00    +0.000 C 
ATOM     14  C7M LFN     0     -12.903 -11.018  13.606  0.00  0.00    +0.000 C 
ATOM     15  C8  LFN     0     -13.263 -10.917  11.129  0.00  0.00    +0.000 C 
ATOM     16  C8M LFN     0     -12.344 -12.104  10.995  0.00  0.00    +0.000 C 
ATOM     17  C9  LFN     0     -13.828 -10.362  10.001  0.00  0.00    +0.000 C 
ATOM     18  N10 LFN     0     -15.247  -8.707   8.995  0.00  0.00    +0.000 N 
ATOM     19  C1' LFN     0     -14.967  -9.253   7.665  0.00  0.00    +0.000 C 
ATOM     20  H3  LFN     0     -18.351  -4.690   9.523  0.00  0.00    +0.000 HD
ENDROOT
TORSDOF 0
ENDMDL
MODEL 10
REMARK VINA RESULT:    -6.609     13.848     15.541
REMARK INTER + INTRA:          -6.609
REMARK INTER:                  -6.609
REMARK INTRA:                   0.000
REMARK UNBOUND:                 0.000
REMARK  Name = /home/esp/scriptDevelopment/voidDock/outputs/134189607_Lumoflavin/Lumoflavin.pdb
REMARK  3 active torsions:
REMARK  status: ('A' for Active; 'I' for Inactive)
REMARK    1  A    between atoms: C7_13  and  C7M_14
REMARK    2  A    between atoms: C8_15  and  C8M_16
REMARK    3  A    between atoms: N10_18  and  C1'_19
REMARK                            x       y       z     vdW  Elec       q    Type
REMARK                         _______ _______ _______ _____ _____    ______ ____
ROOT
ATOM      1  N1  LFN     0       1.129  -9.952   3.879  0.00  0.00    +0.000 N 
ATOM      2  C2  LFN     0       1.730  -9.394   2.831  0.00  0.00    +0.000 A 
ATOM      3  C10 LFN     0       1.700  -9.976   5.071  0.00  0.00    +0.000 A 
ATOM      4  O2  LFN     0       1.147  -9.412   1.761  0.00  0.00    +0.000 OA
ATOM      5  N3  LFN     0       2.938  -8.813   2.879  0.00  0.00    +0.000 N 
ATOM      6  C4  LFN     0       3.644  -8.755   4.031  0.00  0.00    +0.000 A 
ATOM      7  O4  LFN     0       4.739  -8.229   4.077  0.00  0.00    +0.000 OA
ATOM      8  C4A LFN     0       3.027  -9.359   5.232  0.00  0.00    +0.000 A 
ATOM      9  N5  LFN     0       3.623  -9.359   6.398  0.00  0.00    +0.000 N 
ATOM     10  C5A LFN     0       3.035  -9.915   7.466  0.00  0.00    +0.000 C 
ATOM     11  C6  LFN     0       3.693  -9.905   8.712  0.00  0.00    +0.000 C 
ATOM     12  C9A LFN     0       1.760 -10.515   7.364  0.00  0.00    +0.000 C 
ATOM     13  C7  LFN     0       3.098 -10.469   9.799  0.00  0.00    +0.000 C 
ATOM     14  C7M LFN     0       3.808 -10.454  11.129  0.00  0.00    +0.000 C 
ATOM     15  C8  LFN     0       1.843 -11.059   9.697  0.00  0.00    +0.000 C 
ATOM     16  C8M LFN     0       1.206 -11.677  10.915  0.00  0.00    +0.000 C 
ATOM     17  C9  LFN     0       1.175 -11.085   8.492  0.00  0.00    +0.000 C 
ATOM     18  N10 LFN     0       1.096 -10.537   6.156  0.00  0.00    +0.000 N 
ATOM     19  C1' LFN     0      -0.227 -11.157   6.040  0.00  0.00    +0.000 C 
ATOM     20  H3  LFN     0       3.312  -8.427   2.071  0.00  0.00    +0.000 HD
ENDROOT
TORSDOF 0
ENDMDL
