REMARK  Name = /home/esp/scriptDevelopment/voidDock/outputs/134189607_Lumoflavin/Lumoflavin.pdb
REMARK  3 active torsions:
REMARK  status: ('A' for Active; 'I' for Inactive)
REMARK    1  A    between atoms: C7_13  and  C7M_14
REMARK    2  A    between atoms: C8_15  and  C8M_16
REMARK    3  A    between atoms: N10_18  and  C1'_19
REMARK                            x       y       z     vdW  Elec       q    Type
REMARK                         _______ _______ _______ _____ _____    ______ ____
ROOT
ATOM      1  N1  LFN     0      -2.441   1.286   0.000  0.00  0.00    +0.000 N 
ATOM      2  C2  LFN     0      -3.586   0.608   0.000  0.00  0.00    +0.000 A 
ATOM      3  C10 LFN     0      -1.272   0.669   0.005  0.00  0.00    +0.000 A 
ATOM      4  O2  LFN     0      -4.626   1.242   0.000  0.00  0.00    +0.000 OA
ATOM      5  N3  LFN     0      -3.666  -0.731  -0.001  0.00  0.00    +0.000 N 
ATOM      6  C4  LFN     0      -2.553  -1.501  -0.001  0.00  0.00    +0.000 A 
ATOM      7  O4  LFN     0      -2.623  -2.715  -0.001  0.00  0.00    +0.000 OA
ATOM      8  C4A LFN     0      -1.249  -0.803   0.000  0.00  0.00    +0.000 A 
ATOM      9  N5  LFN     0      -0.111  -1.450   0.000  0.00  0.00    +0.000 N 
ATOM     10  C5A LFN     0       1.053  -0.786   0.000  0.00  0.00    +0.000 C 
ATOM     11  C6  LFN     0       2.267  -1.501   0.000  0.00  0.00    +0.000 C 
ATOM     12  C9A LFN     0       1.084   0.627   0.000  0.00  0.00    +0.000 C 
ATOM     13  C7  LFN     0       3.451  -0.829   0.000  0.00  0.00    +0.000 C 
ATOM     14  C7M LFN     0       4.746  -1.600   0.000  0.00  0.00    +0.000 C 
ATOM     15  C8  LFN     0       3.480   0.562   0.000  0.00  0.00    +0.000 C 
ATOM     16  C8M LFN     0       4.804   1.282   0.000  0.00  0.00    +0.000 C 
ATOM     17  C9  LFN     0       2.309   1.288   0.000  0.00  0.00    +0.000 C 
ATOM     18  N10 LFN     0      -0.091   1.349  -0.001  0.00  0.00    +0.000 N 
ATOM     19  C1' LFN     0      -0.069   2.814  -0.001  0.00  0.00    +0.000 C 
ATOM     20  H3  LFN     0      -4.538  -1.155  -0.001  0.00  0.00    +0.000 HD
ENDROOT
TORSDOF 0
