MODEL 1
REMARK VINA RESULT:    -6.930      0.000      0.000
REMARK INTER + INTRA:          -6.930
REMARK INTER:                  -6.930
REMARK INTRA:                   0.000
REMARK UNBOUND:                 0.000
REMARK  Name = /home/esp/scriptDevelopment/voidDock/outputs/62562582_Lumoflavin/Lumoflavin.pdb
REMARK  3 active torsions:
REMARK  status: ('A' for Active; 'I' for Inactive)
REMARK    1  A    between atoms: C7_13  and  C7M_14
REMARK    2  A    between atoms: C8_15  and  C8M_16
REMARK    3  A    between atoms: N10_18  and  C1'_19
REMARK                            x       y       z     vdW  Elec       q    Type
REMARK                         _______ _______ _______ _____ _____    ______ ____
ROOT
ATOM      1  N1  LFN     0       9.685   7.550   1.466  0.00  0.00    +0.000 N 
ATOM      2  C2  LFN     0      10.509   6.571   1.102  0.00  0.00    +0.000 A 
ATOM      3  C10 LFN     0       8.372   7.417   1.382  0.00  0.00    +0.000 A 
ATOM      4  O2  LFN     0      11.707   6.765   1.201  0.00  0.00    +0.000 OA
ATOM      5  N3  LFN     0      10.101   5.382   0.633  0.00  0.00    +0.000 N 
ATOM      6  C4  LFN     0       8.786   5.095   0.495  0.00  0.00    +0.000 A 
ATOM      7  O4  LFN     0       8.414   4.019   0.069  0.00  0.00    +0.000 OA
ATOM      8  C4A LFN     0       7.821   6.147   0.883  0.00  0.00    +0.000 A 
ATOM      9  N5  LFN     0       6.526   5.975   0.790  0.00  0.00    +0.000 N 
ATOM     10  C5A LFN     0       5.680   6.949   1.151  0.00  0.00    +0.000 C 
ATOM     11  C6  LFN     0       4.290   6.745   1.043  0.00  0.00    +0.000 C 
ATOM     12  C9A LFN     0       6.160   8.185   1.641  0.00  0.00    +0.000 C 
ATOM     13  C7  LFN     0       3.428   7.733   1.410  0.00  0.00    +0.000 C 
ATOM     14  C7M LFN     0       1.942   7.507   1.292  0.00  0.00    +0.000 C 
ATOM     15  C8  LFN     0       3.902   8.949   1.892  0.00  0.00    +0.000 C 
ATOM     16  C8M LFN     0       2.926  10.026   2.290  0.00  0.00    +0.000 C 
ATOM     17  C9  LFN     0       5.255   9.178   2.008  0.00  0.00    +0.000 C 
ATOM     18  N10 LFN     0       7.516   8.409   1.756  0.00  0.00    +0.000 N 
ATOM     19  C1' LFN     0       8.023   9.687   2.263  0.00  0.00    +0.000 C 
ATOM     20  H3  LFN     0      10.762   4.716   0.387  0.00  0.00    +0.000 HD
ENDROOT
TORSDOF 0
ENDMDL
MODEL 2
REMARK VINA RESULT:    -6.878     15.291     17.215
REMARK INTER + INTRA:          -6.878
REMARK INTER:                  -6.878
REMARK INTRA:                   0.000
REMARK UNBOUND:                 0.000
REMARK  Name = /home/esp/scriptDevelopment/voidDock/outputs/62562582_Lumoflavin/Lumoflavin.pdb
REMARK  3 active torsions:
REMARK  status: ('A' for Active; 'I' for Inactive)
REMARK    1  A    between atoms: C7_13  and  C7M_14
REMARK    2  A    between atoms: C8_15  and  C8M_16
REMARK    3  A    between atoms: N10_18  and  C1'_19
REMARK                            x       y       z     vdW  Elec       q    Type
REMARK                         _______ _______ _______ _____ _____    ______ ____
ROOT
ATOM      1  N1  LFN     0      -4.042  -1.237  13.790  0.00  0.00    +0.000 N 
ATOM      2  C2  LFN     0      -4.512  -0.131  14.361  0.00  0.00    +0.000 A 
ATOM      3  C10 LFN     0      -3.231  -1.187  12.748  0.00  0.00    +0.000 A 
ATOM      4  O2  LFN     0      -5.260  -0.253  15.315  0.00  0.00    +0.000 OA
ATOM      5  N3  LFN     0      -4.213   1.111  13.951  0.00  0.00    +0.000 N 
ATOM      6  C4  LFN     0      -3.390   1.324  12.898  0.00  0.00    +0.000 A 
ATOM      7  O4  LFN     0      -3.118   2.448  12.524  0.00  0.00    +0.000 OA
ATOM      8  C4A LFN     0      -2.837   0.130  12.221  0.00  0.00    +0.000 A 
ATOM      9  N5  LFN     0      -2.031   0.221  11.194  0.00  0.00    +0.000 N 
ATOM     10  C5A LFN     0      -1.547  -0.881  10.605  0.00  0.00    +0.000 C 
ATOM     11  C6  LFN     0      -0.681  -0.761   9.500  0.00  0.00    +0.000 C 
ATOM     12  C9A LFN     0      -1.892  -2.168  11.076  0.00  0.00    +0.000 C 
ATOM     13  C7  LFN     0      -0.188  -1.879   8.899  0.00  0.00    +0.000 C 
ATOM     14  C7M LFN     0       0.738  -1.744   7.718  0.00  0.00    +0.000 C 
ATOM     15  C8  LFN     0      -0.528  -3.146   9.364  0.00  0.00    +0.000 C 
ATOM     16  C8M LFN     0       0.032  -4.367   8.682  0.00  0.00    +0.000 C 
ATOM     17  C9  LFN     0      -1.373  -3.294  10.443  0.00  0.00    +0.000 C 
ATOM     18  N10 LFN     0      -2.737  -2.310  12.156  0.00  0.00    +0.000 N 
ATOM     19  C1' LFN     0      -3.100  -3.641  12.652  0.00  0.00    +0.000 C 
ATOM     20  H3  LFN     0      -4.595   1.870  14.418  0.00  0.00    +0.000 HD
ENDROOT
TORSDOF 0
ENDMDL
MODEL 3
REMARK VINA RESULT:    -6.877      2.727      4.988
REMARK INTER + INTRA:          -6.877
REMARK INTER:                  -6.877
REMARK INTRA:                   0.000
REMARK UNBOUND:                 0.000
REMARK  Name = /home/esp/scriptDevelopment/voidDock/outputs/62562582_Lumoflavin/Lumoflavin.pdb
REMARK  3 active torsions:
REMARK  status: ('A' for Active; 'I' for Inactive)
REMARK    1  A    between atoms: C7_13  and  C7M_14
REMARK    2  A    between atoms: C8_15  and  C8M_16
REMARK    3  A    between atoms: N10_18  and  C1'_19
REMARK                            x       y       z     vdW  Elec       q    Type
REMARK                         _______ _______ _______ _____ _____    ______ ____
ROOT
ATOM      1  N1  LFN     0       8.055   8.336   0.689  0.00  0.00    +0.000 N 
ATOM      2  C2  LFN     0       9.060   9.202   0.588  0.00  0.00    +0.000 A 
ATOM      3  C10 LFN     0       8.221   7.144   1.235  0.00  0.00    +0.000 A 
ATOM      4  O2  LFN     0       8.836  10.281   0.069  0.00  0.00    +0.000 OA
ATOM      5  N3  LFN     0      10.306   8.960   1.023  0.00  0.00    +0.000 N 
ATOM      6  C4  LFN     0      10.629   7.784   1.610  0.00  0.00    +0.000 A 
ATOM      7  O4  LFN     0      11.758   7.563   2.004  0.00  0.00    +0.000 OA
ATOM      8  C4A LFN     0       9.552   6.781   1.749  0.00  0.00    +0.000 A 
ATOM      9  N5  LFN     0       9.754   5.611   2.301  0.00  0.00    +0.000 N 
ATOM     10  C5A LFN     0       8.755   4.725   2.413  0.00  0.00    +0.000 C 
ATOM     11  C6  LFN     0       8.994   3.472   3.010  0.00  0.00    +0.000 C 
ATOM     12  C9A LFN     0       7.459   5.028   1.939  0.00  0.00    +0.000 C 
ATOM     13  C7  LFN     0       7.981   2.570   3.125  0.00  0.00    +0.000 C 
ATOM     14  C7M LFN     0       8.243   1.231   3.765  0.00  0.00    +0.000 C 
ATOM     15  C8  LFN     0       6.705   2.870   2.658  0.00  0.00    +0.000 C 
ATOM     16  C8M LFN     0       5.600   1.854   2.797  0.00  0.00    +0.000 C 
ATOM     17  C9  LFN     0       6.441   4.087   2.069  0.00  0.00    +0.000 C 
ATOM     18  N10 LFN     0       7.200   6.249   1.352  0.00  0.00    +0.000 N 
ATOM     19  C1' LFN     0       5.859   6.572   0.858  0.00  0.00    +0.000 C 
ATOM     20  H3  LFN     0      10.988   9.641   0.914  0.00  0.00    +0.000 HD
ENDROOT
TORSDOF 0
ENDMDL
MODEL 4
REMARK VINA RESULT:    -6.743     14.565     16.194
REMARK INTER + INTRA:          -6.743
REMARK INTER:                  -6.743
REMARK INTRA:                   0.000
REMARK UNBOUND:                 0.000
REMARK  Name = /home/esp/scriptDevelopment/voidDock/outputs/62562582_Lumoflavin/Lumoflavin.pdb
REMARK  3 active torsions:
REMARK  status: ('A' for Active; 'I' for Inactive)
REMARK    1  A    between atoms: C7_13  and  C7M_14
REMARK    2  A    between atoms: C8_15  and  C8M_16
REMARK    3  A    between atoms: N10_18  and  C1'_19
REMARK                            x       y       z     vdW  Elec       q    Type
REMARK                         _______ _______ _______ _____ _____    ______ ____
ROOT
ATOM      1  N1  LFN     0      -1.711  -5.079   9.791  0.00  0.00    +0.000 N 
ATOM      2  C2  LFN     0      -1.470  -5.515   8.557  0.00  0.00    +0.000 A 
ATOM      3  C10 LFN     0      -1.545  -3.810  10.120  0.00  0.00    +0.000 A 
ATOM      4  O2  LFN     0      -1.639  -6.699   8.325  0.00  0.00    +0.000 OA
ATOM      5  N3  LFN     0      -1.053  -4.731   7.551  0.00  0.00    +0.000 N 
ATOM      6  C4  LFN     0      -0.843  -3.406   7.734  0.00  0.00    +0.000 A 
ATOM      7  O4  LFN     0      -0.465  -2.694   6.824  0.00  0.00    +0.000 OA
ATOM      8  C4A LFN     0      -1.094  -2.864   9.087  0.00  0.00    +0.000 A 
ATOM      9  N5  LFN     0      -0.923  -1.598   9.373  0.00  0.00    +0.000 N 
ATOM     10  C5A LFN     0      -1.160  -1.139  10.610  0.00  0.00    +0.000 C 
ATOM     11  C6  LFN     0      -0.970   0.227  10.898  0.00  0.00    +0.000 C 
ATOM     12  C9A LFN     0      -1.599  -2.006  11.636  0.00  0.00    +0.000 C 
ATOM     13  C7  LFN     0      -1.210   0.696  12.154  0.00  0.00    +0.000 C 
ATOM     14  C7M LFN     0      -1.004   2.159  12.455  0.00  0.00    +0.000 C 
ATOM     15  C8  LFN     0      -1.642  -0.159  13.162  0.00  0.00    +0.000 C 
ATOM     16  C8M LFN     0      -1.901   0.386  14.544  0.00  0.00    +0.000 C 
ATOM     17  C9  LFN     0      -1.837  -1.499  12.910  0.00  0.00    +0.000 C 
ATOM     18  N10 LFN     0      -1.793  -3.347  11.378  0.00  0.00    +0.000 N 
ATOM     19  C1' LFN     0      -2.249  -4.254  12.435  0.00  0.00    +0.000 C 
ATOM     20  H3  LFN     0      -0.898  -5.121   6.677  0.00  0.00    +0.000 HD
ENDROOT
TORSDOF 0
ENDMDL
MODEL 5
REMARK VINA RESULT:    -6.704     15.551     17.058
REMARK INTER + INTRA:          -6.704
REMARK INTER:                  -6.704
REMARK INTRA:                   0.000
REMARK UNBOUND:                 0.000
REMARK  Name = /home/esp/scriptDevelopment/voidDock/outputs/62562582_Lumoflavin/Lumoflavin.pdb
REMARK  3 active torsions:
REMARK  status: ('A' for Active; 'I' for Inactive)
REMARK    1  A    between atoms: C7_13  and  C7M_14
REMARK    2  A    between atoms: C8_15  and  C8M_16
REMARK    3  A    between atoms: N10_18  and  C1'_19
REMARK                            x       y       z     vdW  Elec       q    Type
REMARK                         _______ _______ _______ _____ _____    ______ ____
ROOT
ATOM      1  N1  LFN     0      -1.016   1.326  13.612  0.00  0.00    +0.000 N 
ATOM      2  C2  LFN     0      -1.825   1.804  14.554  0.00  0.00    +0.000 A 
ATOM      3  C10 LFN     0      -1.221   0.142  13.060  0.00  0.00    +0.000 A 
ATOM      4  O2  LFN     0      -1.573   2.900  15.022  0.00  0.00    +0.000 OA
ATOM      5  N3  LFN     0      -2.902   1.154  15.019  0.00  0.00    +0.000 N 
ATOM      6  C4  LFN     0      -3.244  -0.067  14.547  0.00  0.00    +0.000 A 
ATOM      7  O4  LFN     0      -4.220  -0.658  14.968  0.00  0.00    +0.000 OA
ATOM      8  C4A LFN     0      -2.381  -0.651  13.498  0.00  0.00    +0.000 A 
ATOM      9  N5  LFN     0      -2.620  -1.826  12.972  0.00  0.00    +0.000 N 
ATOM     10  C5A LFN     0      -1.817  -2.326  12.022  0.00  0.00    +0.000 C 
ATOM     11  C6  LFN     0      -2.092  -3.592  11.468  0.00  0.00    +0.000 C 
ATOM     12  C9A LFN     0      -0.694  -1.601  11.564  0.00  0.00    +0.000 C 
ATOM     13  C7  LFN     0      -1.278  -4.102  10.503  0.00  0.00    +0.000 C 
ATOM     14  C7M LFN     0      -1.577  -5.457   9.915  0.00  0.00    +0.000 C 
ATOM     15  C8  LFN     0      -0.172  -3.387  10.053  0.00  0.00    +0.000 C 
ATOM     16  C8M LFN     0       0.713  -3.974   8.984  0.00  0.00    +0.000 C 
ATOM     17  C9  LFN     0       0.121  -2.147  10.576  0.00  0.00    +0.000 C 
ATOM     18  N10 LFN     0      -0.405  -0.359  12.090  0.00  0.00    +0.000 N 
ATOM     19  C1' LFN     0       0.757   0.400  11.622  0.00  0.00    +0.000 C 
ATOM     20  H3  LFN     0      -3.446   1.568  15.708  0.00  0.00    +0.000 HD
ENDROOT
TORSDOF 0
ENDMDL
MODEL 6
REMARK VINA RESULT:    -6.671      1.929      2.999
REMARK INTER + INTRA:          -6.671
REMARK INTER:                  -6.671
REMARK INTRA:                   0.000
REMARK UNBOUND:                 0.000
REMARK  Name = /home/esp/scriptDevelopment/voidDock/outputs/62562582_Lumoflavin/Lumoflavin.pdb
REMARK  3 active torsions:
REMARK  status: ('A' for Active; 'I' for Inactive)
REMARK    1  A    between atoms: C7_13  and  C7M_14
REMARK    2  A    between atoms: C8_15  and  C8M_16
REMARK    3  A    between atoms: N10_18  and  C1'_19
REMARK                            x       y       z     vdW  Elec       q    Type
REMARK                         _______ _______ _______ _____ _____    ______ ____
ROOT
ATOM      1  N1  LFN     0       9.770   7.243   1.827  0.00  0.00    +0.000 N 
ATOM      2  C2  LFN     0      10.802   8.048   1.587  0.00  0.00    +0.000 A 
ATOM      3  C10 LFN     0       8.536   7.585   1.498  0.00  0.00    +0.000 A 
ATOM      4  O2  LFN     0      11.911   7.671   1.920  0.00  0.00    +0.000 OA
ATOM      5  N3  LFN     0      10.697   9.249   0.999  0.00  0.00    +0.000 N 
ATOM      6  C4  LFN     0       9.498   9.734   0.601  0.00  0.00    +0.000 A 
ATOM      7  O4  LFN     0       9.400  10.823   0.069  0.00  0.00    +0.000 OA
ATOM      8  C4A LFN     0       8.312   8.884   0.843  0.00  0.00    +0.000 A 
ATOM      9  N5  LFN     0       7.105   9.256   0.498  0.00  0.00    +0.000 N 
ATOM     10  C5A LFN     0       6.052   8.460   0.731  0.00  0.00    +0.000 C 
ATOM     11  C6  LFN     0       4.761   8.878   0.353  0.00  0.00    +0.000 C 
ATOM     12  C9A LFN     0       6.216   7.201   1.353  0.00  0.00    +0.000 C 
ATOM     13  C7  LFN     0       3.690   8.072   0.588  0.00  0.00    +0.000 C 
ATOM     14  C7M LFN     0       2.312   8.525   0.181  0.00  0.00    +0.000 C 
ATOM     15  C8  LFN     0       3.852   6.833   1.201  0.00  0.00    +0.000 C 
ATOM     16  C8M LFN     0       2.650   5.959   1.450  0.00  0.00    +0.000 C 
ATOM     17  C9  LFN     0       5.102   6.397   1.582  0.00  0.00    +0.000 C 
ATOM     18  N10 LFN     0       7.469   6.770   1.732  0.00  0.00    +0.000 N 
ATOM     19  C1' LFN     0       7.649   5.466   2.377  0.00  0.00    +0.000 C 
ATOM     20  H3  LFN     0      11.496   9.780   0.857  0.00  0.00    +0.000 HD
ENDROOT
TORSDOF 0
ENDMDL
MODEL 7
REMARK VINA RESULT:    -6.604      7.521      8.542
REMARK INTER + INTRA:          -6.604
REMARK INTER:                  -6.604
REMARK INTRA:                   0.000
REMARK UNBOUND:                 0.000
REMARK  Name = /home/esp/scriptDevelopment/voidDock/outputs/62562582_Lumoflavin/Lumoflavin.pdb
REMARK  3 active torsions:
REMARK  status: ('A' for Active; 'I' for Inactive)
REMARK    1  A    between atoms: C7_13  and  C7M_14
REMARK    2  A    between atoms: C8_15  and  C8M_16
REMARK    3  A    between atoms: N10_18  and  C1'_19
REMARK                            x       y       z     vdW  Elec       q    Type
REMARK                         _______ _______ _______ _____ _____    ______ ____
ROOT
ATOM      1  N1  LFN     0       9.995  -0.335   6.240  0.00  0.00    +0.000 N 
ATOM      2  C2  LFN     0       9.749  -0.970   5.097  0.00  0.00    +0.000 A 
ATOM      3  C10 LFN     0       9.408   0.813   6.534  0.00  0.00    +0.000 A 
ATOM      4  O2  LFN     0      10.329  -2.021   4.890  0.00  0.00    +0.000 OA
ATOM      5  N3  LFN     0       8.900  -0.525   4.158  0.00  0.00    +0.000 N 
ATOM      6  C4  LFN     0       8.221   0.635   4.318  0.00  0.00    +0.000 A 
ATOM      7  O4  LFN     0       7.452   1.041   3.468  0.00  0.00    +0.000 OA
ATOM      8  C4A LFN     0       8.454   1.387   5.570  0.00  0.00    +0.000 A 
ATOM      9  N5  LFN     0       7.850   2.519   5.828  0.00  0.00    +0.000 N 
ATOM     10  C5A LFN     0       8.083   3.174   6.973  0.00  0.00    +0.000 C 
ATOM     11  C6  LFN     0       7.422   4.391   7.231  0.00  0.00    +0.000 C 
ATOM     12  C9A LFN     0       8.987   2.662   7.932  0.00  0.00    +0.000 C 
ATOM     13  C7  LFN     0       7.658   5.059   8.394  0.00  0.00    +0.000 C 
ATOM     14  C7M LFN     0       6.948   6.361   8.663  0.00  0.00    +0.000 C 
ATOM     15  C8  LFN     0       8.548   4.554   9.337  0.00  0.00    +0.000 C 
ATOM     16  C8M LFN     0       8.791   5.313  10.616  0.00  0.00    +0.000 C 
ATOM     17  C9  LFN     0       9.209   3.366   9.112  0.00  0.00    +0.000 C 
ATOM     18  N10 LFN     0       9.645   1.472   7.703  0.00  0.00    +0.000 N 
ATOM     19  C1' LFN     0      10.583   0.934   8.691  0.00  0.00    +0.000 C 
ATOM     20  H3  LFN     0       8.772  -1.043   3.349  0.00  0.00    +0.000 HD
ENDROOT
TORSDOF 0
ENDMDL
MODEL 8
REMARK VINA RESULT:    -6.538     15.207     16.934
REMARK INTER + INTRA:          -6.538
REMARK INTER:                  -6.538
REMARK INTRA:                   0.000
REMARK UNBOUND:                 0.000
REMARK  Name = /home/esp/scriptDevelopment/voidDock/outputs/62562582_Lumoflavin/Lumoflavin.pdb
REMARK  3 active torsions:
REMARK  status: ('A' for Active; 'I' for Inactive)
REMARK    1  A    between atoms: C7_13  and  C7M_14
REMARK    2  A    between atoms: C8_15  and  C8M_16
REMARK    3  A    between atoms: N10_18  and  C1'_19
REMARK                            x       y       z     vdW  Elec       q    Type
REMARK                         _______ _______ _______ _____ _____    ______ ____
ROOT
ATOM      1  N1  LFN     0      -2.113  -1.747  12.993  0.00  0.00    +0.000 N 
ATOM      2  C2  LFN     0      -2.044  -0.435  13.203  0.00  0.00    +0.000 A 
ATOM      3  C10 LFN     0      -1.833  -2.274  11.814  0.00  0.00    +0.000 A 
ATOM      4  O2  LFN     0      -2.321  -0.019  14.314  0.00  0.00    +0.000 OA
ATOM      5  N3  LFN     0      -1.688   0.458  12.268  0.00  0.00    +0.000 N 
ATOM      6  C4  LFN     0      -1.367   0.069  11.012  0.00  0.00    +0.000 A 
ATOM      7  O4  LFN     0      -1.045   0.876  10.162  0.00  0.00    +0.000 OA
ATOM      8  C4A LFN     0      -1.427  -1.380  10.718  0.00  0.00    +0.000 A 
ATOM      9  N5  LFN     0      -1.137  -1.865   9.537  0.00  0.00    +0.000 N 
ATOM     10  C5A LFN     0      -1.200  -3.183   9.305  0.00  0.00    +0.000 C 
ATOM     11  C6  LFN     0      -0.884  -3.685   8.027  0.00  0.00    +0.000 C 
ATOM     12  C9A LFN     0      -1.580  -4.084  10.325  0.00  0.00    +0.000 C 
ATOM     13  C7  LFN     0      -0.947  -5.024   7.788  0.00  0.00    +0.000 C 
ATOM     14  C7M LFN     0      -0.608  -5.554   6.418  0.00  0.00    +0.000 C 
ATOM     15  C8  LFN     0      -1.321  -5.909   8.794  0.00  0.00    +0.000 C 
ATOM     16  C8M LFN     0      -1.383  -7.387   8.504  0.00  0.00    +0.000 C 
ATOM     17  C9  LFN     0      -1.636  -5.447  10.053  0.00  0.00    +0.000 C 
ATOM     18  N10 LFN     0      -1.893  -3.617  11.585  0.00  0.00    +0.000 N 
ATOM     19  C1' LFN     0      -2.288  -4.542  12.649  0.00  0.00    +0.000 C 
ATOM     20  H3  LFN     0      -1.661   1.400  12.496  0.00  0.00    +0.000 HD
ENDROOT
TORSDOF 0
ENDMDL
MODEL 9
REMARK VINA RESULT:    -6.464      1.974      3.082
REMARK INTER + INTRA:          -6.464
REMARK INTER:                  -6.464
REMARK INTRA:                   0.000
REMARK UNBOUND:                 0.000
REMARK  Name = /home/esp/scriptDevelopment/voidDock/outputs/62562582_Lumoflavin/Lumoflavin.pdb
REMARK  3 active torsions:
REMARK  status: ('A' for Active; 'I' for Inactive)
REMARK    1  A    between atoms: C7_13  and  C7M_14
REMARK    2  A    between atoms: C8_15  and  C8M_16
REMARK    3  A    between atoms: N10_18  and  C1'_19
REMARK                            x       y       z     vdW  Elec       q    Type
REMARK                         _______ _______ _______ _____ _____    ______ ____
ROOT
ATOM      1  N1  LFN     0       9.262  10.018   0.975  0.00  0.00    +0.000 N 
ATOM      2  C2  LFN     0      10.590  10.077   1.034  0.00  0.00    +0.000 A 
ATOM      3  C10 LFN     0       8.610   8.889   1.192  0.00  0.00    +0.000 A 
ATOM      4  O2  LFN     0      11.125  11.150   0.818  0.00  0.00    +0.000 OA
ATOM      5  N3  LFN     0      11.377   9.028   1.318  0.00  0.00    +0.000 N 
ATOM      6  C4  LFN     0      10.853   7.806   1.569  0.00  0.00    +0.000 A 
ATOM      7  O4  LFN     0      11.564   6.853   1.826  0.00  0.00    +0.000 OA
ATOM      8  C4A LFN     0       9.381   7.678   1.517  0.00  0.00    +0.000 A 
ATOM      9  N5  LFN     0       8.770   6.542   1.743  0.00  0.00    +0.000 N 
ATOM     10  C5A LFN     0       7.434   6.461   1.688  0.00  0.00    +0.000 C 
ATOM     11  C6  LFN     0       6.796   5.229   1.934  0.00  0.00    +0.000 C 
ATOM     12  C9A LFN     0       6.649   7.597   1.385  0.00  0.00    +0.000 C 
ATOM     13  C7  LFN     0       5.438   5.145   1.879  0.00  0.00    +0.000 C 
ATOM     14  C7M LFN     0       4.762   3.824   2.144  0.00  0.00    +0.000 C 
ATOM     15  C8  LFN     0       4.667   6.263   1.581  0.00  0.00    +0.000 C 
ATOM     16  C8M LFN     0       3.165   6.143   1.526  0.00  0.00    +0.000 C 
ATOM     17  C9  LFN     0       5.262   7.481   1.335  0.00  0.00    +0.000 C 
ATOM     18  N10 LFN     0       7.250   8.814   1.141  0.00  0.00    +0.000 N 
ATOM     19  C1' LFN     0       6.444   9.996   0.826  0.00  0.00    +0.000 C 
ATOM     20  H3  LFN     0      12.338   9.149   1.344  0.00  0.00    +0.000 HD
ENDROOT
TORSDOF 0
ENDMDL
MODEL 10
REMARK VINA RESULT:    -6.315     15.042     15.766
REMARK INTER + INTRA:          -6.315
REMARK INTER:                  -6.315
REMARK INTRA:                   0.000
REMARK UNBOUND:                 0.000
REMARK  Name = /home/esp/scriptDevelopment/voidDock/outputs/62562582_Lumoflavin/Lumoflavin.pdb
REMARK  3 active torsions:
REMARK  status: ('A' for Active; 'I' for Inactive)
REMARK    1  A    between atoms: C7_13  and  C7M_14
REMARK    2  A    between atoms: C8_15  and  C8M_16
REMARK    3  A    between atoms: N10_18  and  C1'_19
REMARK                            x       y       z     vdW  Elec       q    Type
REMARK                         _______ _______ _______ _____ _____    ______ ____
ROOT
ATOM      1  N1  LFN     0       3.738   4.012  16.746  0.00  0.00    +0.000 N 
ATOM      2  C2  LFN     0       3.720   3.998  18.076  0.00  0.00    +0.000 A 
ATOM      3  C10 LFN     0       2.620   4.010  16.040  0.00  0.00    +0.000 A 
ATOM      4  O2  LFN     0       4.788   3.996  18.662  0.00  0.00    +0.000 OA
ATOM      5  N3  LFN     0       2.600   3.985  18.813  0.00  0.00    +0.000 N 
ATOM      6  C4  LFN     0       1.377   3.986  18.231  0.00  0.00    +0.000 A 
ATOM      7  O4  LFN     0       0.360   3.974  18.897  0.00  0.00    +0.000 OA
ATOM      8  C4A LFN     0       1.333   4.001  16.753  0.00  0.00    +0.000 A 
ATOM      9  N5  LFN     0       0.204   4.003  16.089  0.00  0.00    +0.000 N 
ATOM     10  C5A LFN     0       0.200   4.018  14.749  0.00  0.00    +0.000 C 
ATOM     11  C6  LFN     0      -1.025   4.020  14.053  0.00  0.00    +0.000 C 
ATOM     12  C9A LFN     0       1.410   4.032  14.018  0.00  0.00    +0.000 C 
ATOM     13  C7  LFN     0      -1.032   4.035  12.691  0.00  0.00    +0.000 C 
ATOM     14  C7M LFN     0      -2.346   4.038  11.953  0.00  0.00    +0.000 C 
ATOM     15  C8  LFN     0       0.159   4.049  11.973  0.00  0.00    +0.000 C 
ATOM     16  C8M LFN     0       0.123   4.066  10.467  0.00  0.00    +0.000 C 
ATOM     17  C9  LFN     0       1.372   4.047  12.627  0.00  0.00    +0.000 C 
ATOM     18  N10 LFN     0       2.621   4.031  14.677  0.00  0.00    +0.000 N 
ATOM     19  C1' LFN     0       3.880   4.046  13.928  0.00  0.00    +0.000 C 
ATOM     20  H3  LFN     0       2.667   3.974  19.780  0.00  0.00    +0.000 HD
ENDROOT
TORSDOF 0
ENDMDL
