REMARK  Name = /home/esp/scriptDevelopment/voidDock/ligands/FFF.pdb
REMARK  16 active torsions:
REMARK  status: ('A' for Active; 'I' for Inactive)
REMARK    1  A    between atoms: C2_2  and  C16_21
REMARK    2  A    between atoms: C3_3  and  C15_20
REMARK    3  A    between atoms: C7_8  and  C8_9
REMARK    4  A    between atoms: C8_9  and  C13_18
REMARK    5  A    between atoms: N4_23  and  C18_24
REMARK    6  A    between atoms: C18_24  and  C19_25
REMARK    7  A    between atoms: C19_25  and  O3_26
REMARK    8  A    between atoms: C19_25  and  C20_27
REMARK    9  A    between atoms: C20_27  and  O4_28
REMARK   10  A    between atoms: C20_27  and  C21_29
REMARK   11  A    between atoms: C21_29  and  O5_30
REMARK   12  A    between atoms: C21_29  and  C22_31
REMARK   13  A    between atoms: C22_31  and  O6_32
REMARK   14  A    between atoms: O6_32  and  P1_33
REMARK   15  A    between atoms: P1_33  and  O8_35
REMARK   16  A    between atoms: P1_33  and  O9_36
REMARK                            x       y       z     vdW  Elec       q    Type
REMARK                         _______ _______ _______ _____ _____    ______ ____
ROOT
ATOM      1  C1  FFF F 700      26.696 -36.143  17.123  0.00  0.00    +0.000 C 
ATOM      2  C2  FFF F 700      26.071 -37.309  16.715  0.00  0.00    +0.000 C 
ATOM      3  C3  FFF F 700      26.197 -38.492  17.469  0.00  0.00    +0.000 C 
ATOM      4  C4  FFF F 700      28.397 -34.744  20.131  0.00  0.00    +0.000 A 
ATOM      5  C5  FFF F 700      26.913 -38.467  18.695  0.00  0.00    +0.000 C 
ATOM      6  N1  FFF F 700      29.364 -34.633  22.716  0.00  0.00    +0.000 N 
ATOM      7  C6  FFF F 700      29.370 -33.489  21.961  0.00  0.00    +0.000 A 
ATOM      8  C7  FFF F 700      25.867 -39.851  20.590  0.00  0.00    +0.000 C 
ATOM      9  C8  FFF F 700      27.061 -39.696  19.629  0.00  0.00    +0.000 C 
ATOM     10  C9  FFF F 700      28.137 -38.247  21.231  0.00  0.00    +0.000 C 
ATOM     11  O1  FFF F 700      29.814 -32.447  22.428  0.00  0.00    +0.000 OA
ATOM     12  N2  FFF F 700      28.871 -33.569  20.677  0.00  0.00    +0.000 N 
ATOM     13  C10 FFF F 700      28.979 -35.869  22.265  0.00  0.00    +0.000 A 
ATOM     14  O2  FFF F 700      28.924 -36.836  23.029  0.00  0.00    +0.000 OA
ATOM     15  C11 FFF F 700      28.456 -35.915  20.909  0.00  0.00    +0.000 A 
ATOM     16  N3  FFF F 700      28.030 -37.134  20.418  0.00  0.00    +0.000 N 
ATOM     17  C12 FFF F 700      28.348 -39.503  20.450  0.00  0.00    +0.000 C 
ATOM     18  C13 FFF F 700      27.284 -41.019  18.880  0.00  0.00    +0.000 C 
ATOM     19  C14 FFF F 700      27.430 -37.227  19.152  0.00  0.00    +0.000 C 
ATOM     20  C15 FFF F 700      25.585 -39.779  16.945  0.00  0.00    +0.000 C 
ATOM     21  C16 FFF F 700      25.353 -37.317  15.381  0.00  0.00    +0.000 C 
ATOM     22  C17 FFF F 700      27.321 -36.045  18.356  0.00  0.00    +0.000 C 
ATOM     23  N4  FFF F 700      27.849 -34.823  18.820  0.00  0.00    +0.000 N 
ATOM     24  H6  FFF F 700      28.862 -32.719  20.132  0.00  0.00    +0.000 HD
ENDROOT
BRANCH  23  25
ATOM     25  C18 FFF F 700      27.798 -33.613  17.960  0.00  0.00    +0.000 C 
BRANCH  25  26
ATOM     26  C19 FFF F 700      26.474 -32.867  17.891  0.00  0.00    +0.000 C 
BRANCH  26  27
ATOM     27  O3  FFF F 700      25.478 -33.794  17.556  0.00  0.00    +0.000 OA
ATOM     28  H21 FFF F 700      24.629 -33.348  17.506  0.00  0.00    +0.000 HD
ENDBRANCH  26  27
BRANCH  26  29
ATOM     29  C20 FFF F 700      26.466 -31.808  16.779  0.00  0.00    +0.000 C 
BRANCH  29  30
ATOM     30  O4  FFF F 700      27.784 -31.305  16.563  0.00  0.00    +0.000 OA
ATOM     31  H23 FFF F 700      27.765 -30.645  15.866  0.00  0.00    +0.000 HD
ENDBRANCH  29  30
BRANCH  29  32
ATOM     32  C21 FFF F 700      25.569 -30.620  17.119  0.00  0.00    +0.000 C 
BRANCH  32  33
ATOM     33  O5  FFF F 700      25.314 -29.838  15.952  0.00  0.00    +0.000 OA
ATOM     34  H25 FFF F 700      25.142 -30.420  15.208  0.00  0.00    +0.000 HD
ENDBRANCH  32  33
BRANCH  32  35
ATOM     35  C22 FFF F 700      26.162 -29.732  18.191  0.00  0.00    +0.000 C 
BRANCH  35  36
ATOM     36  O6  FFF F 700      25.039 -29.261  18.982  0.00  0.00    +0.000 OA
BRANCH  36  37
ATOM     37  P1  FFF F 700      24.960 -27.695  19.261  0.00  0.00    +0.000 P 
ATOM     38  O7  FFF F 700      23.531 -27.275  19.520  0.00  0.00    +0.000 OA
BRANCH  37  39
ATOM     39  O8  FFF F 700      25.447 -27.143  17.936  0.00  0.00    +0.000 OA
ATOM     40  H28 FFF F 700      25.448 -26.184  17.970  0.00  0.00    +0.000 HD
ENDBRANCH  37  39
BRANCH  37  41
ATOM     41  O9  FFF F 700      25.862 -27.387  20.455  0.00  0.00    +0.000 OA
ATOM     42  H29 FFF F 700      25.540 -27.856  21.229  0.00  0.00    +0.000 HD
ENDBRANCH  37  41
ENDBRANCH  36  37
ENDBRANCH  35  36
ENDBRANCH  32  35
ENDBRANCH  29  32
ENDBRANCH  26  29
ENDBRANCH  25  26
ENDBRANCH  23  25
TORSDOF 12
