/home/esp/scriptDevelopment/voidDock/ligands/FMN.pdb
 OpenBabel06242414593D

 51 53  0  0  1  0  0  0  0  0999 V2000
   -2.3690    5.7790    5.5970 P   0  0  2  0  0  0  0  0  0  0  0  0
   -2.5850    7.1960    5.9660 O   0  0  0  0  0  0  0  0  0  0  0  0
   -3.3890    4.8490    6.4260 O   0  0  0  0  0  0  0  0  0  0  0  0
   -0.8550    5.3570    5.9450 O   0  0  0  0  0  0  0  0  0  0  0  0
   -1.0910    3.1710    1.2720 C   0  0  0  0  0  0  0  0  0  0  0  0
   -1.0900    2.1880    3.9170 N   0  0  0  0  0  0  0  0  0  0  0  0
   -1.1130    1.7650    5.1790 C   0  0  0  0  0  0  0  0  0  0  0  0
   -1.6530    2.4740    6.0100 O   0  0  0  0  0  0  0  0  0  0  0  0
   -3.3940    4.1390    1.3140 C   0  0  1  0  0  0  0  0  0  0  0  0
   -0.5800    0.6070    5.5930 N   0  0  0  0  0  0  0  0  0  0  0  0
   -2.6140    5.3340    1.2300 O   0  0  0  0  0  0  0  0  0  0  0  0
    0.0340   -0.2330    4.7270 C   0  0  0  0  0  0  0  0  0  0  0  0
    0.0930    0.1830    3.3090 C   0  0  0  0  0  0  0  0  0  0  0  0
    0.5180   -1.2850    5.1000 O   0  0  0  0  0  0  0  0  0  0  0  0
   -3.9150    5.2760    3.4760 C   0  0  0  0  0  0  0  0  0  0  0  0
    0.6990   -0.1450    1.1130 C   0  0  0  0  0  0  0  0  0  0  0  0
    0.6630   -0.5520    2.3890 N   0  0  0  0  0  0  0  0  0  0  0  0
   -2.6310    5.5890    4.0190 O   0  0  0  0  0  0  0  0  0  0  0  0
    1.3180   -0.9510    0.1380 C   0  0  0  0  0  0  0  0  0  0  0  0
    1.3560   -0.5400   -1.1600 C   0  0  0  0  0  0  0  0  0  0  0  0
    2.0190   -1.4070   -2.1970 C   0  0  0  0  0  0  0  0  0  0  0  0
    0.7870    0.6720   -1.5380 C   0  0  0  0  0  0  0  0  0  0  0  0
    0.8410    1.1030   -2.9810 C   0  0  0  0  0  0  0  0  0  0  0  0
    0.1740    1.4810   -0.6080 C   0  0  0  0  0  0  0  0  0  0  0  0
    0.1220    1.0860    0.7260 C   0  0  0  0  0  0  0  0  0  0  0  0
   -0.5230    1.4750    2.9590 C   0  0  0  0  0  0  0  0  0  0  0  0
   -0.4900    1.8930    1.6630 N   0  0  0  0  0  0  0  0  0  0  0  0
   -2.5480    2.9460    0.8650 C   0  0  1  0  0  0  0  0  0  0  0  0
   -2.6300    2.8110   -0.5550 O   0  0  0  0  0  0  0  0  0  0  0  0
   -3.8490    3.9270    2.7590 C   0  0  1  0  0  0  0  0  0  0  0  0
   -5.1430    3.3190    2.7660 O   0  0  0  0  0  0  0  0  0  0  0  0
   -0.5390    3.5890    0.4300 H   0  0  0  0  0  0  0  0  0  0  0  0
   -1.0510    3.8640    2.1120 H   0  0  0  0  0  0  0  0  0  0  0  0
   -4.2670    4.2290    0.6680 H   0  0  0  0  0  0  0  0  0  0  0  0
   -4.2090    6.0500    2.7670 H   0  0  0  0  0  0  0  0  0  0  0  0
   -4.6480    5.2250    4.2810 H   0  0  0  0  0  0  0  0  0  0  0  0
   -2.9210    2.0380    1.3390 H   0  0  0  0  0  0  0  0  0  0  0  0
   -3.1400    3.2780    3.2720 H   0  0  0  0  0  0  0  0  0  0  0  0
   -2.1250    3.4760   -1.0430 H   0  0  0  0  0  0  0  0  0  0  0  0
   -5.3080    2.7530    3.5330 H   0  0  0  0  0  0  0  0  0  0  0  0
   -0.6640    4.4210    5.7990 H   0  0  0  0  0  0  0  0  0  0  0  0
    0.6810   -1.8350    0.1020 H   0  0  0  0  0  0  0  0  0  0  0  0
    1.4970   -2.3620   -2.2590 H   0  0  0  0  0  0  0  0  0  0  0  0
    1.9810   -0.9090   -3.1660 H   0  0  0  0  0  0  0  0  0  0  0  0
    3.0590   -1.5780   -1.9170 H   0  0  0  0  0  0  0  0  0  0  0  0
    0.3160    2.0520   -3.0960 H   0  0  0  0  0  0  0  0  0  0  0  0
    1.8810    1.2250   -3.2860 H   0  0  0  0  0  0  0  0  0  0  0  0
    0.3640    0.3470   -3.6050 H   0  0  0  0  0  0  0  0  0  0  0  0
   -0.8720    1.4690   -0.9150 H   0  0  0  0  0  0  0  0  0  0  0  0
    0.1600    0.9850    6.0940 H   0  0  0  0  0  0  0  0  0  0  0  0
   -2.3840    5.5910    0.3270 H   0  0  0  0  0  0  0  0  0  0  0  0
  1  4  1  0  0  0  0
  1  2  2  1  0  0  0
  1  3  1  0  0  0  0
  5 27  1  0  0  0  0
  5 33  1  0  0  0  0
  6  7  1  0  0  0  0
  7 10  1  0  0  0  0
  7  8  2  0  0  0  0
  9 34  1  6  0  0  0
  9 30  1  0  0  0  0
 10 50  1  0  0  0  0
 11  9  1  0  0  0  0
 12 14  2  0  0  0  0
 12 10  1  0  0  0  0
 13 12  1  0  0  0  0
 15 18  1  0  0  0  0
 15 36  1  0  0  0  0
 16 17  2  0  0  0  0
 17 13  1  0  0  0  0
 18  1  1  0  0  0  0
 19 16  1  0  0  0  0
 20 19  1  0  0  0  0
 21 45  1  0  0  0  0
 21 20  1  0  0  0  0
 22 20  2  0  0  0  0
 22 24  1  0  0  0  0
 23 22  1  0  0  0  0
 24 25  2  0  0  0  0
 25 16  1  0  0  0  0
 25 27  1  0  0  0  0
 26 13  2  0  0  0  0
 26  6  1  0  0  0  0
 27 26  1  0  0  0  0
 28  5  1  0  0  0  0
 28  9  1  0  0  0  0
 28 37  1  1  0  0  0
 29 28  1  0  0  0  0
 30 31  1  0  0  0  0
 30 38  1  1  0  0  0
 30 15  1  0  0  0  0
 31 40  1  0  0  0  0
 32  5  1  0  0  0  0
 35 15  1  0  0  0  0
 39 29  1  0  0  0  0
 41  4  1  0  0  0  0
 42 19  1  0  0  0  0
 43 21  1  0  0  0  0
 44 21  1  0  0  0  0
 46 23  1  0  0  0  0
 47 23  1  0  0  0  0
 48 23  1  0  0  0  0
 49 24  1  0  0  0  0
 51 11  1  0  0  0  0
M  END
$$$$
