REMARK  Name = /home/esp/scriptDevelopment/voidDock/ligands/FMN.pdb
REMARK  13 active torsions:
REMARK  status: ('A' for Active; 'I' for Inactive)
REMARK    1  A    between atoms: P_1  and  O3P_4
REMARK    2  A    between atoms: P_1  and  O5_18
REMARK    3  A    between atoms: C1_5  and  N10_27
REMARK    4  A    between atoms: C1_5  and  C21_28
REMARK    5  A    between atoms: C3_9  and  O3_11
REMARK    6  A    between atoms: C3_9  and  C21_28
REMARK    7  A    between atoms: C3_9  and  C41_30
REMARK    8  A    between atoms: C5_15  and  O5_18
REMARK    9  A    between atoms: C5_15  and  C41_30
REMARK   10  A    between atoms: C7_20  and  C7M_21
REMARK   11  A    between atoms: C8_22  and  C8M_23
REMARK   12  A    between atoms: C21_28  and  O21_29
REMARK   13  A    between atoms: C41_30  and  O41_31
REMARK                            x       y       z     vdW  Elec       q    Type
REMARK                         _______ _______ _______ _____ _____    ______ ____
ROOT
ATOM      1 N1   FMN A 248      -1.090   2.188   3.917  0.00  0.00    +0.000 N 
ATOM      2 C2   FMN A 248      -1.113   1.765   5.179  0.00  0.00    +0.000 A 
ATOM      3 O2   FMN A 248      -1.653   2.474   6.010  0.00  0.00    +0.000 OA
ATOM      4 N3   FMN A 248      -0.580   0.607   5.593  0.00  0.00    +0.000 N 
ATOM      5 C4   FMN A 248       0.034  -0.233   4.727  0.00  0.00    +0.000 A 
ATOM      6 C4A  FMN A 248       0.093   0.183   3.309  0.00  0.00    +0.000 A 
ATOM      7 O4   FMN A 248       0.518  -1.285   5.100  0.00  0.00    +0.000 OA
ATOM      8 C5A  FMN A 248       0.699  -0.145   1.113  0.00  0.00    +0.000 C 
ATOM      9 N5   FMN A 248       0.663  -0.552   2.389  0.00  0.00    +0.000 N 
ATOM     10 C6   FMN A 248       1.318  -0.951   0.138  0.00  0.00    +0.000 C 
ATOM     11 C7   FMN A 248       1.356  -0.540  -1.160  0.00  0.00    +0.000 C 
ATOM     12 C7M  FMN A 248       2.019  -1.407  -2.197  0.00  0.00    +0.000 C 
ATOM     13 C8   FMN A 248       0.787   0.672  -1.538  0.00  0.00    +0.000 C 
ATOM     14 C8M  FMN A 248       0.841   1.103  -2.981  0.00  0.00    +0.000 C 
ATOM     15 C9   FMN A 248       0.174   1.481  -0.608  0.00  0.00    +0.000 C 
ATOM     16 C9A  FMN A 248       0.122   1.086   0.726  0.00  0.00    +0.000 C 
ATOM     17 C10  FMN A 248      -0.523   1.475   2.959  0.00  0.00    +0.000 A 
ATOM     18 N10  FMN A 248      -0.490   1.893   1.663  0.00  0.00    +0.000 N 
ATOM     19 HC1  FMN A 248       0.160   0.985   6.094  0.00  0.00    +0.000 HD
ENDROOT
BRANCH  18  20
ATOM     20 C1   FMN A 248      -1.091   3.171   1.272  0.00  0.00    +0.000 C 
BRANCH  20  21
ATOM     21 C21  FMN A 248      -2.548   2.946   0.865  0.00  0.00    +0.000 C 
BRANCH  21  22
ATOM     22 O21  FMN A 248      -2.630   2.811  -0.555  0.00  0.00    +0.000 OA
ATOM     23 HA8  FMN A 248      -2.125   3.476  -1.043  0.00  0.00    +0.000 HD
ENDBRANCH  21  22
BRANCH  21  24
ATOM     24 C3   FMN A 248      -3.394   4.139   1.314  0.00  0.00    +0.000 C 
BRANCH  24  25
ATOM     25 O3   FMN A 248      -2.614   5.334   1.230  0.00  0.00    +0.000 OA
ATOM     26 HC2  FMN A 248      -2.384   5.591   0.327  0.00  0.00    +0.000 HD
ENDBRANCH  24  25
BRANCH  24  27
ATOM     27 C41  FMN A 248      -3.849   3.927   2.759  0.00  0.00    +0.000 C 
BRANCH  27  28
ATOM     28 O41  FMN A 248      -5.143   3.319   2.766  0.00  0.00    +0.000 OA
ATOM     29 HA9  FMN A 248      -5.308   2.753   3.533  0.00  0.00    +0.000 HD
ENDBRANCH  27  28
BRANCH  27  30
ATOM     30 C5   FMN A 248      -3.915   5.276   3.476  0.00  0.00    +0.000 C 
BRANCH  30  31
ATOM     31 O5   FMN A 248      -2.631   5.589   4.019  0.00  0.00    +0.000 OA
BRANCH  31  32
ATOM     32 P    FMN A 248      -2.369   5.779   5.597  0.00  0.00    +0.000 P 
ATOM     33 O1P  FMN A 248      -2.585   7.196   5.966  0.00  0.00    +0.000 OA
ATOM     34 O2P  FMN A 248      -3.389   4.849   6.426  0.00  0.00    +0.000 OA
BRANCH  32  35
ATOM     35 O3P  FMN A 248      -0.855   5.357   5.945  0.00  0.00    +0.000 OA
ATOM     36 HB1  FMN A 248      -0.664   4.421   5.799  0.00  0.00    +0.000 HD
ENDBRANCH  32  35
ENDBRANCH  31  32
ENDBRANCH  30  31
ENDBRANCH  27  30
ENDBRANCH  24  27
ENDBRANCH  21  24
ENDBRANCH  20  21
ENDBRANCH  18  20
TORSDOF 11
