TPA.pdb
 OpenBabel06162416123D

 16 16  0  0  0  0  0  0  0  0999 V2000
   31.5520  -33.4100   17.4370 O   0  5  0  0  0  0  0  0  0  0  0  0
   31.5420  -38.9870   22.1220 O   0  5  0  0  0  0  0  0  0  0  0  0
   31.1440  -34.8680   15.8600 O   0  0  0  0  0  0  0  0  0  0  0  0
   31.4750  -40.1880   20.3380 O   0  0  0  0  0  0  0  0  0  0  0  0
   31.4940  -35.7210   18.0590 C   0  0  0  0  0  0  0  0  0  0  0  0
   31.5840  -37.8910   19.9290 C   0  0  0  0  0  0  0  0  0  0  0  0
   31.4610  -37.0590   17.6140 C   0  0  0  0  0  0  0  0  0  0  0  0
   31.5180  -38.1230   18.5330 C   0  0  0  0  0  0  0  0  0  0  0  0
   31.6090  -35.4800   19.4500 C   0  0  0  0  0  0  0  0  0  0  0  0
   31.6520  -36.5530   20.3750 C   0  0  0  0  0  0  0  0  0  0  0  0
   31.3910  -34.5940   17.0590 C   0  0  0  0  0  0  0  0  0  0  0  0
   31.5430  -39.0750   20.8730 C   0  0  0  0  0  0  0  0  0  0  0  0
   31.3810  -37.2770   16.5600 H   0  0  0  0  0  0  0  0  0  0  0  0
   31.4760  -39.1330   18.1500 H   0  0  0  0  0  0  0  0  0  0  0  0
   31.6320  -34.4650   19.8190 H   0  0  0  0  0  0  0  0  0  0  0  0
   31.7030  -36.3470   21.4350 H   0  0  0  0  0  0  0  0  0  0  0  0
  3 11  2  0  0  0  0
  4 12  2  0  0  0  0
  5  9  1  0  0  0  0
  6 10  1  0  0  0  0
  6 12  1  0  0  0  0
  7  5  2  0  0  0  0
  7  8  1  0  0  0  0
  8  6  2  0  0  0  0
  9 15  1  0  0  0  0
  9 10  2  0  0  0  0
 10 16  1  0  0  0  0
 11  1  1  0  0  0  0
 11  5  1  0  0  0  0
 12  2  1  0  0  0  0
 13  7  1  0  0  0  0
 14  8  1  0  0  0  0
M  CHG  2   1  -1   2  -1
M  END
$$$$
