MODEL 1
REMARK VINA RESULT:    -7.368      0.000      0.000
REMARK INTER + INTRA:          -7.368
REMARK INTER:                  -7.368
REMARK INTRA:                   0.000
REMARK UNBOUND:                 0.000
REMARK  0 active torsions:
REMARK  status: ('A' for Active; 'I' for Inactive)
ROOT
HETATM    1  N1  LFN     0       6.064  -6.281  -2.686  0.00  0.00    -0.173 NA
HETATM    2  C2  LFN     0       6.054  -6.988  -1.559  0.00  0.00     0.350 A 
HETATM    3  C10 LFN     0       5.636  -5.030  -2.721  0.00  0.00     0.170 A 
HETATM    4  O2  LFN     0       6.459  -8.136  -1.601  0.00  0.00    -0.244 OA
HETATM    5  N3  LFN     0       5.627  -6.515  -0.379  0.00  0.00    -0.272 N 
HETATM    6  C4  LFN     0       5.164  -5.249  -0.256  0.00  0.00     0.282 A 
HETATM    7  O4  LFN     0       4.775  -4.818   0.813  0.00  0.00    -0.265 OA
HETATM    8  C4A LFN     0       5.149  -4.414  -1.476  0.00  0.00     0.171 A 
HETATM    9  N5  LFN     0       4.722  -3.177  -1.470  0.00  0.00    -0.237 NA
HETATM   10  C5A LFN     0       4.723  -2.447  -2.594  0.00  0.00     0.085 A 
HETATM   11  C6  LFN     0       4.259  -1.117  -2.567  0.00  0.00     0.041 A 
HETATM   12  C9A LFN     0       5.185  -2.992  -3.814  0.00  0.00     0.065 A 
HETATM   13  C7  LFN     0       4.259  -0.374  -3.707  0.00  0.00    -0.054 A 
HETATM   14  C7M LFN     0       3.761   1.048  -3.671  0.00  0.00     0.049 C 
HETATM   15  C8  LFN     0       4.714  -0.912  -4.907  0.00  0.00    -0.054 A 
HETATM   16  C8M LFN     0       4.704  -0.068  -6.156  0.00  0.00     0.049 C 
HETATM   17  C9  LFN     0       5.174  -2.209  -4.965  0.00  0.00     0.039 A 
HETATM   18  N10 LFN     0       5.645  -4.291  -3.866  0.00  0.00    -0.332 N 
HETATM   19  C1' LFN     0       6.126  -4.865  -5.126  0.00  0.00     0.158 C 
HETATM   20  H3  LFN     0       5.650  -7.091   0.401  0.00  0.00     0.174 HD
ENDROOT
TORSDOF 0
ENDMDL
MODEL 2
REMARK VINA RESULT:    -7.084      3.754      6.103
REMARK INTER + INTRA:          -7.084
REMARK INTER:                  -7.084
REMARK INTRA:                   0.000
REMARK UNBOUND:                 0.000
REMARK  0 active torsions:
REMARK  status: ('A' for Active; 'I' for Inactive)
ROOT
HETATM    1  N1  LFN     0       2.564  -0.426  -1.750  0.00  0.00    -0.173 NA
HETATM    2  C2  LFN     0       1.992   0.749  -2.000  0.00  0.00     0.350 A 
HETATM    3  C10 LFN     0       3.626  -0.836  -2.422  0.00  0.00     0.170 A 
HETATM    4  O2  LFN     0       1.014   1.060  -1.345  0.00  0.00    -0.244 OA
HETATM    5  N3  LFN     0       2.428   1.614  -2.929  0.00  0.00    -0.272 N 
HETATM    6  C4  LFN     0       3.508   1.336  -3.695  0.00  0.00     0.282 A 
HETATM    7  O4  LFN     0       3.904   2.118  -4.538  0.00  0.00    -0.265 OA
HETATM    8  C4A LFN     0       4.186   0.042  -3.463  0.00  0.00     0.171 A 
HETATM    9  N5  LFN     0       5.240  -0.327  -4.147  0.00  0.00    -0.237 NA
HETATM   10  C5A LFN     0       5.830  -1.506  -3.910  0.00  0.00     0.085 A 
HETATM   11  C6  LFN     0       6.963  -1.884  -4.658  0.00  0.00     0.041 A 
HETATM   12  C9A LFN     0       5.333  -2.382  -2.919  0.00  0.00     0.065 A 
HETATM   13  C7  LFN     0       7.565  -3.082  -4.419  0.00  0.00    -0.054 A 
HETATM   14  C7M LFN     0       8.776  -3.481  -5.222  0.00  0.00     0.049 C 
HETATM   15  C8  LFN     0       7.074  -3.943  -3.443  0.00  0.00    -0.054 A 
HETATM   16  C8M LFN     0       7.759  -5.264  -3.199  0.00  0.00     0.049 C 
HETATM   17  C9  LFN     0       5.968  -3.601  -2.696  0.00  0.00     0.039 A 
HETATM   18  N10 LFN     0       4.226  -2.034  -2.174  0.00  0.00    -0.332 N 
HETATM   19  C1' LFN     0       3.704  -2.935  -1.144  0.00  0.00     0.158 C 
HETATM   20  H3  LFN     0       1.958   2.453  -3.054  0.00  0.00     0.174 HD
ENDROOT
TORSDOF 0
ENDMDL
MODEL 3
REMARK VINA RESULT:    -7.016      2.325      3.631
REMARK INTER + INTRA:          -7.016
REMARK INTER:                  -7.016
REMARK INTRA:                   0.000
REMARK UNBOUND:                 0.000
REMARK  0 active torsions:
REMARK  status: ('A' for Active; 'I' for Inactive)
ROOT
HETATM    1  N1  LFN     0       6.322  -4.516  -2.418  0.00  0.00    -0.173 NA
HETATM    2  C2  LFN     0       7.389  -5.058  -3.002  0.00  0.00     0.350 A 
HETATM    3  C10 LFN     0       5.872  -3.324  -2.770  0.00  0.00     0.170 A 
HETATM    4  O2  LFN     0       7.751  -6.158  -2.624  0.00  0.00    -0.244 OA
HETATM    5  N3  LFN     0       8.089  -4.467  -3.982  0.00  0.00    -0.272 N 
HETATM    6  C4  LFN     0       7.746  -3.246  -4.452  0.00  0.00     0.282 A 
HETATM    7  O4  LFN     0       8.380  -2.708  -5.340  0.00  0.00    -0.265 OA
HETATM    8  C4A LFN     0       6.568  -2.593  -3.841  0.00  0.00     0.171 A 
HETATM    9  N5  LFN     0       6.149  -1.412  -4.220  0.00  0.00    -0.237 NA
HETATM   10  C5A LFN     0       5.078  -0.849  -3.645  0.00  0.00     0.085 A 
HETATM   11  C6  LFN     0       4.643   0.422  -4.067  0.00  0.00     0.041 A 
HETATM   12  C9A LFN     0       4.372  -1.514  -2.616  0.00  0.00     0.065 A 
HETATM   13  C7  LFN     0       3.554   0.996  -3.485  0.00  0.00    -0.054 A 
HETATM   14  C7M LFN     0       3.094   2.357  -3.942  0.00  0.00     0.049 C 
HETATM   15  C8  LFN     0       2.861   0.341  -2.472  0.00  0.00    -0.054 A 
HETATM   16  C8M LFN     0       1.659   0.998  -1.843  0.00  0.00     0.049 C 
HETATM   17  C9  LFN     0       3.263  -0.903  -2.038  0.00  0.00     0.039 A 
HETATM   18  N10 LFN     0       4.778  -2.759  -2.186  0.00  0.00    -0.332 N 
HETATM   19  C1' LFN     0       4.053  -3.456  -1.119  0.00  0.00     0.158 C 
HETATM   20  H3  LFN     0       8.856  -4.924  -4.359  0.00  0.00     0.174 HD
ENDROOT
TORSDOF 0
ENDMDL
MODEL 4
REMARK VINA RESULT:    -6.987      3.119      5.489
REMARK INTER + INTRA:          -6.987
REMARK INTER:                  -6.987
REMARK INTRA:                   0.000
REMARK UNBOUND:                 0.000
REMARK  0 active torsions:
REMARK  status: ('A' for Active; 'I' for Inactive)
ROOT
HETATM    1  N1  LFN     0       2.482  -0.066  -4.057  0.00  0.00    -0.173 NA
HETATM    2  C2  LFN     0       1.393   0.185  -3.335  0.00  0.00     0.350 A 
HETATM    3  C10 LFN     0       3.319  -1.036  -3.730  0.00  0.00     0.170 A 
HETATM    4  O2  LFN     0       0.668   1.097  -3.692  0.00  0.00    -0.244 OA
HETATM    5  N3  LFN     0       1.043  -0.503  -2.238  0.00  0.00    -0.272 N 
HETATM    6  C4  LFN     0       1.798  -1.529  -1.782  0.00  0.00     0.282 A 
HETATM    7  O4  LFN     0       1.483  -2.154  -0.788  0.00  0.00    -0.265 OA
HETATM    8  C4A LFN     0       3.024  -1.856  -2.544  0.00  0.00     0.171 A 
HETATM    9  N5  LFN     0       3.826  -2.828  -2.191  0.00  0.00    -0.237 NA
HETATM   10  C5A LFN     0       4.928  -3.098  -2.904  0.00  0.00     0.085 A 
HETATM   11  C6  LFN     0       5.779  -4.149  -2.508  0.00  0.00     0.041 A 
HETATM   12  C9A LFN     0       5.253  -2.343  -4.054  0.00  0.00     0.065 A 
HETATM   13  C7  LFN     0       6.899  -4.425  -3.231  0.00  0.00    -0.054 A 
HETATM   14  C7M LFN     0       7.805  -5.550  -2.801  0.00  0.00     0.049 C 
HETATM   15  C8  LFN     0       7.217  -3.681  -4.362  0.00  0.00    -0.054 A 
HETATM   16  C8M LFN     0       8.463  -4.007  -5.145  0.00  0.00     0.049 C 
HETATM   17  C9  LFN     0       6.404  -2.647  -4.774  0.00  0.00     0.039 A 
HETATM   18  N10 LFN     0       4.435  -1.310  -4.463  0.00  0.00    -0.332 N 
HETATM   19  C1' LFN     0       4.764  -0.522  -5.653  0.00  0.00     0.158 C 
HETATM   20  H3  LFN     0       0.233  -0.261  -1.763  0.00  0.00     0.174 HD
ENDROOT
TORSDOF 0
ENDMDL
MODEL 5
REMARK VINA RESULT:    -6.962      2.440      3.699
REMARK INTER + INTRA:          -6.962
REMARK INTER:                  -6.962
REMARK INTRA:                   0.000
REMARK UNBOUND:                 0.000
REMARK  0 active torsions:
REMARK  status: ('A' for Active; 'I' for Inactive)
ROOT
HETATM    1  N1  LFN     0       7.017  -2.901  -5.239  0.00  0.00    -0.173 NA
HETATM    2  C2  LFN     0       7.878  -3.913  -5.170  0.00  0.00     0.350 A 
HETATM    3  C10 LFN     0       6.187  -2.629  -4.247  0.00  0.00     0.170 A 
HETATM    4  O2  LFN     0       8.610  -4.108  -6.124  0.00  0.00    -0.244 OA
HETATM    5  N3  LFN     0       7.991  -4.731  -4.113  0.00  0.00    -0.272 N 
HETATM    6  C4  LFN     0       7.211  -4.576  -3.018  0.00  0.00     0.282 A 
HETATM    7  O4  LFN     0       7.311  -5.318  -2.059  0.00  0.00    -0.265 OA
HETATM    8  C4A LFN     0       6.233  -3.467  -3.037  0.00  0.00     0.171 A 
HETATM    9  N5  LFN     0       5.430  -3.227  -2.031  0.00  0.00    -0.237 NA
HETATM   10  C5A LFN     0       4.556  -2.212  -2.081  0.00  0.00     0.085 A 
HETATM   11  C6  LFN     0       3.700  -1.970  -0.988  0.00  0.00     0.041 A 
HETATM   12  C9A LFN     0       4.476  -1.377  -3.218  0.00  0.00     0.065 A 
HETATM   13  C7  LFN     0       2.811  -0.941  -1.037  0.00  0.00    -0.054 A 
HETATM   14  C7M LFN     0       1.899  -0.688   0.136  0.00  0.00     0.049 C 
HETATM   15  C8  LFN     0       2.734  -0.119  -2.157  0.00  0.00    -0.054 A 
HETATM   16  C8M LFN     0       1.741   1.014  -2.185  0.00  0.00     0.049 C 
HETATM   17  C9  LFN     0       3.558  -0.331  -3.241  0.00  0.00     0.039 A 
HETATM   18  N10 LFN     0       5.303  -1.593  -4.300  0.00  0.00    -0.332 N 
HETATM   19  C1' LFN     0       5.228  -0.732  -5.484  0.00  0.00     0.158 C 
HETATM   20  H3  LFN     0       8.643  -5.449  -4.135  0.00  0.00     0.174 HD
ENDROOT
TORSDOF 0
ENDMDL
MODEL 6
REMARK VINA RESULT:    -6.870      2.957      6.275
REMARK INTER + INTRA:          -6.870
REMARK INTER:                  -6.870
REMARK INTRA:                   0.000
REMARK UNBOUND:                 0.000
REMARK  0 active torsions:
REMARK  status: ('A' for Active; 'I' for Inactive)
ROOT
HETATM    1  N1  LFN     0       4.830  -3.089  -4.478  0.00  0.00    -0.173 NA
HETATM    2  C2  LFN     0       5.498  -2.044  -4.961  0.00  0.00     0.350 A 
HETATM    3  C10 LFN     0       5.435  -4.035  -3.781  0.00  0.00     0.170 A 
HETATM    4  O2  LFN     0       4.876  -1.212  -5.598  0.00  0.00    -0.244 OA
HETATM    5  N3  LFN     0       6.813  -1.849  -4.788  0.00  0.00    -0.272 N 
HETATM    6  C4  LFN     0       7.569  -2.730  -4.092  0.00  0.00     0.282 A 
HETATM    7  O4  LFN     0       8.762  -2.555  -3.934  0.00  0.00    -0.265 OA
HETATM    8  C4A LFN     0       6.881  -3.913  -3.531  0.00  0.00     0.171 A 
HETATM    9  N5  LFN     0       7.515  -4.827  -2.841  0.00  0.00    -0.237 NA
HETATM   10  C5A LFN     0       6.861  -5.887  -2.347  0.00  0.00     0.085 A 
HETATM   11  C6  LFN     0       7.562  -6.860  -1.607  0.00  0.00     0.041 A 
HETATM   12  C9A LFN     0       5.473  -6.047  -2.556  0.00  0.00     0.065 A 
HETATM   13  C7  LFN     0       6.900  -7.938  -1.103  0.00  0.00    -0.054 A 
HETATM   14  C7M LFN     0       7.656  -8.975  -0.313  0.00  0.00     0.049 C 
HETATM   15  C8  LFN     0       5.533  -8.094  -1.310  0.00  0.00    -0.054 A 
HETATM   16  C8M LFN     0       4.824  -9.296  -0.742  0.00  0.00     0.049 C 
HETATM   17  C9  LFN     0       4.821  -7.159  -2.029  0.00  0.00     0.039 A 
HETATM   18  N10 LFN     0       4.764  -5.108  -3.276  0.00  0.00    -0.332 N 
HETATM   19  C1' LFN     0       3.325  -5.265  -3.497  0.00  0.00     0.158 C 
HETATM   20  H3  LFN     0       7.231  -1.061  -5.170  0.00  0.00     0.174 HD
ENDROOT
TORSDOF 0
ENDMDL
MODEL 7
REMARK VINA RESULT:    -6.669     17.287     19.536
REMARK INTER + INTRA:          -6.669
REMARK INTER:                  -6.669
REMARK INTRA:                   0.000
REMARK UNBOUND:                 0.000
REMARK  0 active torsions:
REMARK  status: ('A' for Active; 'I' for Inactive)
ROOT
HETATM    1  N1  LFN     0      -3.034   2.905  15.951  0.00  0.00    -0.173 NA
HETATM    2  C2  LFN     0      -3.589   4.112  15.868  0.00  0.00     0.350 A 
HETATM    3  C10 LFN     0      -2.649   2.245  14.872  0.00  0.00     0.170 A 
HETATM    4  O2  LFN     0      -3.924   4.660  16.903  0.00  0.00    -0.244 OA
HETATM    5  N3  LFN     0      -3.802   4.763  14.715  0.00  0.00    -0.272 N 
HETATM    6  C4  LFN     0      -3.456   4.217  13.526  0.00  0.00     0.282 A 
HETATM    7  O4  LFN     0      -3.648   4.805  12.479  0.00  0.00    -0.265 OA
HETATM    8  C4A LFN     0      -2.835   2.875  13.555  0.00  0.00     0.171 A 
HETATM    9  N5  LFN     0      -2.462   2.255  12.464  0.00  0.00    -0.237 NA
HETATM   10  C5A LFN     0      -1.901   1.039  12.525  0.00  0.00     0.085 A 
HETATM   11  C6  LFN     0      -1.507   0.389  11.340  0.00  0.00     0.041 A 
HETATM   12  C9A LFN     0      -1.697   0.395  13.767  0.00  0.00     0.065 A 
HETATM   13  C7  LFN     0      -0.937  -0.846  11.399  0.00  0.00    -0.054 A 
HETATM   14  C7M LFN     0      -0.517  -1.536  10.127  0.00  0.00     0.049 C 
HETATM   15  C8  LFN     0      -0.737  -1.479  12.622  0.00  0.00    -0.054 A 
HETATM   16  C8M LFN     0      -0.104  -2.846  12.661  0.00  0.00     0.049 C 
HETATM   17  C9  LFN     0      -1.112  -0.868  13.798  0.00  0.00     0.039 A 
HETATM   18  N10 LFN     0      -2.074   1.012  14.941  0.00  0.00    -0.332 N 
HETATM   19  C1' LFN     0      -1.867   0.352  16.233  0.00  0.00     0.158 C 
HETATM   20  H3  LFN     0      -4.212   5.641  14.734  0.00  0.00     0.174 HD
ENDROOT
TORSDOF 0
ENDMDL
MODEL 8
REMARK VINA RESULT:    -6.655     15.503     17.801
REMARK INTER + INTRA:          -6.655
REMARK INTER:                  -6.655
REMARK INTRA:                   0.000
REMARK UNBOUND:                 0.000
REMARK  0 active torsions:
REMARK  status: ('A' for Active; 'I' for Inactive)
ROOT
HETATM    1  N1  LFN     0      -9.392   4.751   0.252  0.00  0.00    -0.173 NA
HETATM    2  C2  LFN     0      -9.005   3.794  -0.587  0.00  0.00     0.350 A 
HETATM    3  C10 LFN     0      -9.056   4.729   1.530  0.00  0.00     0.170 A 
HETATM    4  O2  LFN     0      -9.355   3.876  -1.751  0.00  0.00    -0.244 OA
HETATM    5  N3  LFN     0      -8.251   2.743  -0.231  0.00  0.00    -0.272 N 
HETATM    6  C4  LFN     0      -7.825   2.584   1.044  0.00  0.00     0.282 A 
HETATM    7  O4  LFN     0      -7.143   1.632   1.370  0.00  0.00    -0.265 OA
HETATM    8  C4A LFN     0      -8.225   3.618   2.023  0.00  0.00     0.171 A 
HETATM    9  N5  LFN     0      -7.868   3.563   3.282  0.00  0.00    -0.237 NA
HETATM   10  C5A LFN     0      -8.248   4.517   4.142  0.00  0.00     0.085 A 
HETATM   11  C6  LFN     0      -7.853   4.440   5.493  0.00  0.00     0.041 A 
HETATM   12  C9A LFN     0      -9.042   5.606   3.717  0.00  0.00     0.065 A 
HETATM   13  C7  LFN     0      -8.237   5.408   6.369  0.00  0.00    -0.054 A 
HETATM   14  C7M LFN     0      -7.812   5.319   7.812  0.00  0.00     0.049 C 
HETATM   15  C8  LFN     0      -9.019   6.480   5.949  0.00  0.00    -0.054 A 
HETATM   16  C8M LFN     0      -9.431   7.538   6.939  0.00  0.00     0.049 C 
HETATM   17  C9  LFN     0      -9.420   6.582   4.635  0.00  0.00     0.039 A 
HETATM   18  N10 LFN     0      -9.440   5.705   2.400  0.00  0.00    -0.332 N 
HETATM   19  C1' LFN     0     -10.263   6.830   1.949  0.00  0.00     0.158 C 
HETATM   20  H3  LFN     0      -8.008   2.084  -0.899  0.00  0.00     0.174 HD
ENDROOT
TORSDOF 0
ENDMDL
MODEL 9
REMARK VINA RESULT:    -6.572      4.389      6.581
REMARK INTER + INTRA:          -6.572
REMARK INTER:                  -6.572
REMARK INTRA:                   0.000
REMARK UNBOUND:                 0.000
REMARK  0 active torsions:
REMARK  status: ('A' for Active; 'I' for Inactive)
ROOT
HETATM    1  N1  LFN     0       1.215   0.186  -0.616  0.00  0.00    -0.173 NA
HETATM    2  C2  LFN     0       0.374   1.206  -0.769  0.00  0.00     0.350 A 
HETATM    3  C10 LFN     0       2.189  -0.044  -1.479  0.00  0.00     0.170 A 
HETATM    4  O2  LFN     0      -0.503   1.354   0.063  0.00  0.00    -0.244 OA
HETATM    5  N3  LFN     0       0.433   2.082  -1.784  0.00  0.00    -0.272 N 
HETATM    6  C4  LFN     0       1.380   1.979  -2.745  0.00  0.00     0.282 A 
HETATM    7  O4  LFN     0       1.435   2.772  -3.666  0.00  0.00    -0.265 OA
HETATM    8  C4A LFN     0       2.343   0.863  -2.629  0.00  0.00     0.171 A 
HETATM    9  N5  LFN     0       3.298   0.672  -3.503  0.00  0.00    -0.237 NA
HETATM   10  C5A LFN     0       4.155  -0.349  -3.366  0.00  0.00     0.085 A 
HETATM   11  C6  LFN     0       5.177  -0.538  -4.318  0.00  0.00     0.041 A 
HETATM   12  C9A LFN     0       4.052  -1.245  -2.278  0.00  0.00     0.065 A 
HETATM   13  C7  LFN     0       6.049  -1.575  -4.182  0.00  0.00    -0.054 A 
HETATM   14  C7M LFN     0       7.139  -1.772  -5.204  0.00  0.00     0.049 C 
HETATM   15  C8  LFN     0       5.945  -2.456  -3.110  0.00  0.00    -0.054 A 
HETATM   16  C8M LFN     0       6.923  -3.596  -2.982  0.00  0.00     0.049 C 
HETATM   17  C9  LFN     0       4.957  -2.296  -2.164  0.00  0.00     0.039 A 
HETATM   18  N10 LFN     0       3.061  -1.080  -1.333  0.00  0.00    -0.332 N 
HETATM   19  C1' LFN     0       2.946  -2.003  -0.201  0.00  0.00     0.158 C 
HETATM   20  H3  LFN     0      -0.216   2.801  -1.829  0.00  0.00     0.174 HD
ENDROOT
TORSDOF 0
ENDMDL
