REMARK  0 active torsions:
REMARK  status: ('A' for Active; 'I' for Inactive)
ROOT
HETATM    1  N1  LFN     0      -2.441   1.286   0.000  0.00  0.00    -0.173 NA
HETATM    2  C2  LFN     0      -3.586   0.608   0.000  0.00  0.00     0.350 A 
HETATM    3  C10 LFN     0      -1.272   0.669   0.005  0.00  0.00     0.170 A 
HETATM    4  O2  LFN     0      -4.626   1.242   0.000  0.00  0.00    -0.244 OA
HETATM    5  N3  LFN     0      -3.666  -0.731  -0.001  0.00  0.00    -0.272 N 
HETATM    6  C4  LFN     0      -2.553  -1.501  -0.001  0.00  0.00     0.282 A 
HETATM    7  O4  LFN     0      -2.623  -2.715  -0.001  0.00  0.00    -0.265 OA
HETATM    8  C4A LFN     0      -1.249  -0.803   0.000  0.00  0.00     0.171 A 
HETATM    9  N5  LFN     0      -0.111  -1.450   0.000  0.00  0.00    -0.237 NA
HETATM   10  C5A LFN     0       1.053  -0.786   0.000  0.00  0.00     0.085 A 
HETATM   11  C6  LFN     0       2.267  -1.501   0.000  0.00  0.00     0.041 A 
HETATM   12  C9A LFN     0       1.084   0.627   0.000  0.00  0.00     0.065 A 
HETATM   13  C7  LFN     0       3.451  -0.829   0.000  0.00  0.00    -0.054 A 
HETATM   14  C7M LFN     0       4.746  -1.600   0.000  0.00  0.00     0.049 C 
HETATM   15  C8  LFN     0       3.480   0.562   0.000  0.00  0.00    -0.054 A 
HETATM   16  C8M LFN     0       4.804   1.282   0.000  0.00  0.00     0.049 C 
HETATM   17  C9  LFN     0       2.309   1.288   0.000  0.00  0.00     0.039 A 
HETATM   18  N10 LFN     0      -0.091   1.349  -0.001  0.00  0.00    -0.332 N 
HETATM   19  C1' LFN     0      -0.069   2.814  -0.001  0.00  0.00     0.158 C 
HETATM   20  H3  LFN     0      -4.538  -1.155  -0.001  0.00  0.00     0.174 HD
ENDROOT
TORSDOF 0
