MODEL 1
REMARK VINA RESULT:    -9.919      0.000      0.000
REMARK INTER + INTRA:         -21.936
REMARK INTER:                 -18.894
REMARK INTRA:                  -3.042
REMARK UNBOUND:                -2.159
REMARK  Name = /home/esp/scriptDevelopment/voidDock/outputs/134189607_FAD/FAD.pdb
REMARK  23 active torsions:
REMARK  status: ('A' for Active; 'I' for Inactive)
REMARK    1  A    between atoms: PA_1  and  O2A_3
REMARK    2  A    between atoms: PA_1  and  O5B_4
REMARK    3  A    between atoms: PA_1  and  O3P_53
REMARK    4  A    between atoms: O5B_4  and  C5B_5
REMARK    5  A    between atoms: C5B_5  and  C4B_6
REMARK    6  A    between atoms: C3B_8  and  O3B_9
REMARK    7  A    between atoms: C2B_10  and  O2B_11
REMARK    8  A    between atoms: C1B_12  and  N9A_13
REMARK    9  A    between atoms: C6A_17  and  N6A_18
REMARK   10  A    between atoms: C7_33  and  C7M_34
REMARK   11  A    between atoms: C8_35  and  C8M_36
REMARK   12  A    between atoms: N10_39  and  C1'_41
REMARK   13  A    between atoms: C1'_41  and  C2'_42
REMARK   14  A    between atoms: C2'_42  and  O2'_43
REMARK   15  A    between atoms: C2'_42  and  C3'_44
REMARK   16  A    between atoms: C3'_44  and  O3'_45
REMARK   17  A    between atoms: C3'_44  and  C4'_46
REMARK   18  A    between atoms: C4'_46  and  O4'_47
REMARK   19  A    between atoms: C4'_46  and  C5'_48
REMARK   20  A    between atoms: C5'_48  and  O5'_49
REMARK   21  A    between atoms: O5'_49  and  P_50
REMARK   22  A    between atoms: P_50  and  O2P_52
REMARK   23  A    between atoms: P_50  and  O3P_53
REMARK                            x       y       z     vdW  Elec       q    Type
REMARK                         _______ _______ _______ _____ _____    ______ ____
ROOT
ATOM      1  P   FAD     0      -6.438  -2.670   5.676  0.00  0.00    +0.000 P 
ATOM      2  O1P FAD     0      -6.129  -1.731   4.574  0.00  0.00    +0.000 OA
ENDROOT
BRANCH   1   3
ATOM      3  O2P FAD     0      -7.815  -3.439   5.356  0.00  0.00    +0.000 OA
ATOM      4 HOP2 FAD     0      -8.246  -2.954   4.638  0.00  0.00    +0.000 HD
ENDBRANCH   1   3
BRANCH   1   5
ATOM      5  O3P FAD     0      -6.588  -1.850   7.053  0.00  0.00    +0.000 OA
BRANCH   5   6
ATOM      6  PA  FAD     0      -7.390  -2.798   8.075  0.00  0.00    +0.000 P 
ATOM      7  O1A FAD     0      -7.048  -2.424   9.466  0.00  0.00    +0.000 OA
BRANCH   6   8
ATOM      8  O2A FAD     0      -6.978  -4.333   7.816  0.00  0.00    +0.000 OA
ATOM      9 HOA2 FAD     0      -6.536  -4.643   8.616  0.00  0.00    +0.000 HD
ENDBRANCH   6   8
BRANCH   6  10
ATOM     10  O5B FAD     0      -8.973  -2.621   7.845  0.00  0.00    +0.000 OA
BRANCH  10  11
ATOM     11  C5B FAD     0      -9.289  -1.266   8.169  0.00  0.00    +0.000 C 
BRANCH  11  12
ATOM     12  C4B FAD     0     -10.106  -0.648   7.033  0.00  0.00    +0.000 C 
ATOM     13  O4B FAD     0      -9.843  -1.347   5.804  0.00  0.00    +0.000 OA
ATOM     14  C3B FAD     0     -11.611  -0.791   7.331  0.00  0.00    +0.000 C 
ATOM     15  C2B FAD     0     -12.160  -1.594   6.122  0.00  0.00    +0.000 C 
ATOM     16  C1B FAD     0     -11.073  -1.346   5.047  0.00  0.00    +0.000 C 
BRANCH  16  17
ATOM     17  N9A FAD     0     -11.068  -2.424   4.056  0.00  0.00    +0.000 N 
ATOM     18  C8A FAD     0     -11.220  -3.754   4.309  0.00  0.00    +0.000 A 
ATOM     19  N7A FAD     0     -11.164  -4.428   3.198  0.00  0.00    +0.000 N 
ATOM     20  C5A FAD     0     -10.974  -3.576   2.163  0.00  0.00    +0.000 A 
ATOM     21  C6A FAD     0     -10.839  -3.724   0.771  0.00  0.00    +0.000 C 
ATOM     22  N1A FAD     0     -10.657  -2.634   0.033  0.00  0.00    +0.000 N 
ATOM     23  C2A FAD     0     -10.604  -1.435   0.585  0.00  0.00    +0.000 C 
ATOM     24  N3A FAD     0     -10.724  -1.249   1.882  0.00  0.00    +0.000 N 
ATOM     25  C4A FAD     0     -10.914  -2.279   2.700  0.00  0.00    +0.000 A 
BRANCH  21  26
ATOM     26  N6A FAD     0     -10.894  -4.976   0.184  0.00  0.00    +0.000 N 
ATOM     27 H61A FAD     0     -11.417  -5.682   0.596  0.00  0.00    +0.000 HD
ATOM     28 H62A FAD     0     -10.411  -5.148  -0.639  0.00  0.00    +0.000 HD
ENDBRANCH  21  26
ENDBRANCH  16  17
BRANCH  14  29
ATOM     29  O3B FAD     0     -12.238   0.491   7.405  0.00  0.00    +0.000 OA
ATOM     30 HO3A FAD     0     -12.010   0.962   6.593  0.00  0.00    +0.000 HD
ENDBRANCH  14  29
BRANCH  15  31
ATOM     31  O2B FAD     0     -13.423  -1.078   5.699  0.00  0.00    +0.000 OA
ATOM     32 HO2A FAD     0     -14.017  -1.836   5.606  0.00  0.00    +0.000 HD
ENDBRANCH  15  31
ENDBRANCH  11  12
ENDBRANCH  10  11
ENDBRANCH   6  10
ENDBRANCH   5   6
ENDBRANCH   1   5
BRANCH   1  33
ATOM     33  O5' FAD     0      -5.245  -3.741   5.816  0.00  0.00    +0.000 OA
BRANCH  33  34
ATOM     34  C5' FAD     0      -4.341  -3.498   4.738  0.00  0.00    +0.000 C 
BRANCH  34  35
ATOM     35  C4' FAD     0      -3.996  -4.820   4.051  0.00  0.00    +0.000 C 
BRANCH  35  36
ATOM     36  O4' FAD     0      -5.201  -5.508   3.711  0.00  0.00    +0.000 OA
ATOM     37 HO4' FAD     0      -5.027  -6.452   3.825  0.00  0.00    +0.000 HD
ENDBRANCH  35  36
BRANCH  35  38
ATOM     38  C3' FAD     0      -3.193  -4.541   2.779  0.00  0.00    +0.000 C 
BRANCH  38  39
ATOM     39  O3' FAD     0      -2.434  -3.342   2.949  0.00  0.00    +0.000 OA
ATOM     40 HO3' FAD     0      -2.712  -2.734   2.250  0.00  0.00    +0.000 HD
ENDBRANCH  38  39
BRANCH  38  41
ATOM     41  C2' FAD     0      -2.246  -5.711   2.506  0.00  0.00    +0.000 C 
BRANCH  41  42
ATOM     42  O2' FAD     0      -1.500  -5.451   1.316  0.00  0.00    +0.000 OA
ATOM     43 HO2' FAD     0      -0.768  -4.870   1.564  0.00  0.00    +0.000 HD
ENDBRANCH  41  42
BRANCH  41  44
ATOM     44  C1' FAD     0      -1.283  -5.872   3.685  0.00  0.00    +0.000 C 
BRANCH  44  61
ATOM     45  N1  FAD     0      -3.155  -7.766   4.616  0.00  0.00    +0.000 N 
ATOM     46  C2  FAD     0      -4.072  -8.622   5.058  0.00  0.00    +0.000 A 
ATOM     47  O2  FAD     0      -5.185  -8.192   5.305  0.00  0.00    +0.000 OA
ATOM     48  N3  FAD     0      -3.848  -9.930   5.249  0.00  0.00    +0.000 N 
ATOM     49  C4  FAD     0      -2.636 -10.480   4.995  0.00  0.00    +0.000 A 
ATOM     50  O4  FAD     0      -2.431 -11.665   5.168  0.00  0.00    +0.000 OA
ATOM     51  C4X FAD     0      -1.575  -9.576   4.501  0.00  0.00    +0.000 A 
ATOM     52  N5  FAD     0      -0.370 -10.000   4.223  0.00  0.00    +0.000 N 
ATOM     53  C5X FAD     0       0.567  -9.155   3.775  0.00  0.00    +0.000 C 
ATOM     54  C6  FAD     0       1.860  -9.633   3.483  0.00  0.00    +0.000 C 
ATOM     55  C7  FAD     0       2.815  -8.775   3.029  0.00  0.00    +0.000 C 
ATOM     56  C7M FAD     0       4.195  -9.294   2.718  0.00  0.00    +0.000 C 
ATOM     57  C8  FAD     0       2.533  -7.425   2.853  0.00  0.00    +0.000 C 
ATOM     58  C8M FAD     0       3.608  -6.496   2.350  0.00  0.00    +0.000 C 
ATOM     59  C9  FAD     0       1.277  -6.929   3.127  0.00  0.00    +0.000 C 
ATOM     60  C9A FAD     0       0.280  -7.784   3.592  0.00  0.00    +0.000 C 
ATOM     61  N10 FAD     0      -0.976  -7.291   3.873  0.00  0.00    +0.000 N 
ATOM     62  C10 FAD     0      -1.925  -8.156   4.325  0.00  0.00    +0.000 A 
ATOM     63  HN3 FAD     0      -4.566 -10.493   5.574  0.00  0.00    +0.000 HD
ENDBRANCH  44  61
ENDBRANCH  41  44
ENDBRANCH  38  41
ENDBRANCH  35  38
ENDBRANCH  34  35
ENDBRANCH  33  34
ENDBRANCH   1  33
TORSDOF 21
ENDMDL
MODEL 2
REMARK VINA RESULT:    -9.766      1.595      2.127
REMARK INTER + INTRA:         -21.631
REMARK INTER:                 -18.323
REMARK INTRA:                  -3.308
REMARK UNBOUND:                -2.159
REMARK  Name = /home/esp/scriptDevelopment/voidDock/outputs/134189607_FAD/FAD.pdb
REMARK  23 active torsions:
REMARK  status: ('A' for Active; 'I' for Inactive)
REMARK    1  A    between atoms: PA_1  and  O2A_3
REMARK    2  A    between atoms: PA_1  and  O5B_4
REMARK    3  A    between atoms: PA_1  and  O3P_53
REMARK    4  A    between atoms: O5B_4  and  C5B_5
REMARK    5  A    between atoms: C5B_5  and  C4B_6
REMARK    6  A    between atoms: C3B_8  and  O3B_9
REMARK    7  A    between atoms: C2B_10  and  O2B_11
REMARK    8  A    between atoms: C1B_12  and  N9A_13
REMARK    9  A    between atoms: C6A_17  and  N6A_18
REMARK   10  A    between atoms: C7_33  and  C7M_34
REMARK   11  A    between atoms: C8_35  and  C8M_36
REMARK   12  A    between atoms: N10_39  and  C1'_41
REMARK   13  A    between atoms: C1'_41  and  C2'_42
REMARK   14  A    between atoms: C2'_42  and  O2'_43
REMARK   15  A    between atoms: C2'_42  and  C3'_44
REMARK   16  A    between atoms: C3'_44  and  O3'_45
REMARK   17  A    between atoms: C3'_44  and  C4'_46
REMARK   18  A    between atoms: C4'_46  and  O4'_47
REMARK   19  A    between atoms: C4'_46  and  C5'_48
REMARK   20  A    between atoms: C5'_48  and  O5'_49
REMARK   21  A    between atoms: O5'_49  and  P_50
REMARK   22  A    between atoms: P_50  and  O2P_52
REMARK   23  A    between atoms: P_50  and  O3P_53
REMARK                            x       y       z     vdW  Elec       q    Type
REMARK                         _______ _______ _______ _____ _____    ______ ____
ROOT
ATOM      1  P   FAD     0      -6.872  -1.908   6.325  0.00  0.00    +0.000 P 
ATOM      2  O1P FAD     0      -6.690  -1.027   5.150  0.00  0.00    +0.000 OA
ENDROOT
BRANCH   1   3
ATOM      3  O2P FAD     0      -8.014  -2.996   6.009  0.00  0.00    +0.000 OA
ATOM      4 HOP2 FAD     0      -7.566  -3.842   5.878  0.00  0.00    +0.000 HD
ENDBRANCH   1   3
BRANCH   1   5
ATOM      5  O3P FAD     0      -7.311  -1.023   7.596  0.00  0.00    +0.000 OA
BRANCH   5   6
ATOM      6  PA  FAD     0      -8.027  -2.021   8.635  0.00  0.00    +0.000 P 
ATOM      7  O1A FAD     0      -8.037  -1.407   9.982  0.00  0.00    +0.000 OA
BRANCH   6   8
ATOM      8  O2A FAD     0      -7.217  -3.412   8.685  0.00  0.00    +0.000 OA
ATOM      9 HOA2 FAD     0      -6.285  -3.197   8.557  0.00  0.00    +0.000 HD
ENDBRANCH   6   8
BRANCH   6  10
ATOM     10  O5B FAD     0      -9.540  -2.298   8.160  0.00  0.00    +0.000 OA
BRANCH  10  11
ATOM     11  C5B FAD     0     -10.292  -1.123   8.468  0.00  0.00    +0.000 C 
BRANCH  11  12
ATOM     12  C4B FAD     0     -10.776  -0.473   7.171  0.00  0.00    +0.000 C 
ATOM     13  O4B FAD     0     -10.310  -1.229   6.041  0.00  0.00    +0.000 OA
ATOM     14  C3B FAD     0     -12.316  -0.478   7.124  0.00  0.00    +0.000 C 
ATOM     15  C2B FAD     0     -12.651  -1.268   5.832  0.00  0.00    +0.000 C 
ATOM     16  C1B FAD     0     -11.334  -1.147   5.026  0.00  0.00    +0.000 C 
BRANCH  16  17
ATOM     17  N9A FAD     0     -11.205  -2.250   4.073  0.00  0.00    +0.000 N 
ATOM     18  C8A FAD     0     -11.245  -3.581   4.369  0.00  0.00    +0.000 A 
ATOM     19  N7A FAD     0     -11.098  -4.282   3.283  0.00  0.00    +0.000 N 
ATOM     20  C5A FAD     0     -10.956  -3.450   2.224  0.00  0.00    +0.000 A 
ATOM     21  C6A FAD     0     -10.768  -3.630   0.843  0.00  0.00    +0.000 C 
ATOM     22  N1A FAD     0     -10.663  -2.552   0.072  0.00  0.00    +0.000 N 
ATOM     23  C2A FAD     0     -10.733  -1.336   0.583  0.00  0.00    +0.000 C 
ATOM     24  N3A FAD     0     -10.906  -1.120   1.870  0.00  0.00    +0.000 N 
ATOM     25  C4A FAD     0     -11.027  -2.136   2.717  0.00  0.00    +0.000 A 
BRANCH  21  26
ATOM     26  N6A FAD     0     -10.695  -4.900   0.298  0.00  0.00    +0.000 N 
ATOM     27 H61A FAD     0     -10.014  -5.520   0.603  0.00  0.00    +0.000 HD
ATOM     28 H62A FAD     0     -11.326  -5.170  -0.388  0.00  0.00    +0.000 HD
ENDBRANCH  21  26
ENDBRANCH  16  17
BRANCH  14  29
ATOM     29  O3B FAD     0     -12.826   0.855   7.042  0.00  0.00    +0.000 OA
ATOM     30 HO3A FAD     0     -13.765   0.810   7.266  0.00  0.00    +0.000 HD
ENDBRANCH  14  29
BRANCH  15  31
ATOM     31  O2B FAD     0     -13.737  -0.659   5.130  0.00  0.00    +0.000 OA
ATOM     32 HO2A FAD     0     -13.640   0.297   5.240  0.00  0.00    +0.000 HD
ENDBRANCH  15  31
ENDBRANCH  11  12
ENDBRANCH  10  11
ENDBRANCH   6  10
ENDBRANCH   5   6
ENDBRANCH   1   5
BRANCH   1  33
ATOM     33  O5' FAD     0      -5.487  -2.662   6.648  0.00  0.00    +0.000 OA
BRANCH  33  34
ATOM     34  C5' FAD     0      -4.745  -2.703   5.429  0.00  0.00    +0.000 C 
BRANCH  34  35
ATOM     35  C4' FAD     0      -4.665  -4.146   4.928  0.00  0.00    +0.000 C 
BRANCH  35  36
ATOM     36  O4' FAD     0      -5.928  -4.531   4.382  0.00  0.00    +0.000 OA
ATOM     37 HO4' FAD     0      -6.549  -4.579   5.122  0.00  0.00    +0.000 HD
ENDBRANCH  35  36
BRANCH  35  38
ATOM     38  C3' FAD     0      -3.590  -4.252   3.844  0.00  0.00    +0.000 C 
BRANCH  38  39
ATOM     39  O3' FAD     0      -2.482  -3.419   4.191  0.00  0.00    +0.000 OA
ATOM     40 HO3' FAD     0      -2.840  -2.666   4.680  0.00  0.00    +0.000 HD
ENDBRANCH  38  39
BRANCH  38  41
ATOM     41  C2' FAD     0      -3.121  -5.703   3.730  0.00  0.00    +0.000 C 
BRANCH  41  42
ATOM     42  O2' FAD     0      -1.900  -5.752   2.991  0.00  0.00    +0.000 OA
ATOM     43 HO2' FAD     0      -1.599  -6.672   3.006  0.00  0.00    +0.000 HD
ENDBRANCH  41  42
BRANCH  41  44
ATOM     44  C1' FAD     0      -2.892  -6.277   5.130  0.00  0.00    +0.000 C 
BRANCH  44  61
ATOM     45  N1  FAD     0      -5.493  -7.370   5.106  0.00  0.00    +0.000 N 
ATOM     46  C2  FAD     0      -6.737  -7.840   5.095  0.00  0.00    +0.000 A 
ATOM     47  O2  FAD     0      -7.652  -7.034   5.094  0.00  0.00    +0.000 OA
ATOM     48  N3  FAD     0      -7.048  -9.144   5.084  0.00  0.00    +0.000 N 
ATOM     49  C4  FAD     0      -6.085 -10.096   5.084  0.00  0.00    +0.000 A 
ATOM     50  O4  FAD     0      -6.365 -11.278   5.075  0.00  0.00    +0.000 OA
ATOM     51  C4X FAD     0      -4.680  -9.634   5.096  0.00  0.00    +0.000 A 
ATOM     52  N5  FAD     0      -3.672 -10.467   5.096  0.00  0.00    +0.000 N 
ATOM     53  C5X FAD     0      -2.411 -10.016   5.105  0.00  0.00    +0.000 C 
ATOM     54  C6  FAD     0      -1.339 -10.930   5.105  0.00  0.00    +0.000 C 
ATOM     55  C7  FAD     0      -0.057 -10.473   5.116  0.00  0.00    +0.000 C 
ATOM     56  C7M FAD     0       1.085 -11.457   5.116  0.00  0.00    +0.000 C 
ATOM     57  C8  FAD     0       0.213  -9.109   5.132  0.00  0.00    +0.000 C 
ATOM     58  C8M FAD     0       1.641  -8.629   5.145  0.00  0.00    +0.000 C 
ATOM     59  C9  FAD     0      -0.814  -8.191   5.129  0.00  0.00    +0.000 C 
ATOM     60  C9A FAD     0      -2.136  -8.630   5.116  0.00  0.00    +0.000 C 
ATOM     61  N10 FAD     0      -3.168  -7.715   5.119  0.00  0.00    +0.000 N 
ATOM     62  C10 FAD     0      -4.447  -8.180   5.106  0.00  0.00    +0.000 A 
ATOM     63  HN3 FAD     0      -7.980  -9.410   5.077  0.00  0.00    +0.000 HD
ENDBRANCH  44  61
ENDBRANCH  41  44
ENDBRANCH  38  41
ENDBRANCH  35  38
ENDBRANCH  34  35
ENDBRANCH  33  34
ENDBRANCH   1  33
TORSDOF 21
ENDMDL
MODEL 3
REMARK VINA RESULT:    -9.606      3.302      5.461
REMARK INTER + INTRA:         -21.311
REMARK INTER:                 -18.960
REMARK INTRA:                  -2.351
REMARK UNBOUND:                -2.159
REMARK  Name = /home/esp/scriptDevelopment/voidDock/outputs/134189607_FAD/FAD.pdb
REMARK  23 active torsions:
REMARK  status: ('A' for Active; 'I' for Inactive)
REMARK    1  A    between atoms: PA_1  and  O2A_3
REMARK    2  A    between atoms: PA_1  and  O5B_4
REMARK    3  A    between atoms: PA_1  and  O3P_53
REMARK    4  A    between atoms: O5B_4  and  C5B_5
REMARK    5  A    between atoms: C5B_5  and  C4B_6
REMARK    6  A    between atoms: C3B_8  and  O3B_9
REMARK    7  A    between atoms: C2B_10  and  O2B_11
REMARK    8  A    between atoms: C1B_12  and  N9A_13
REMARK    9  A    between atoms: C6A_17  and  N6A_18
REMARK   10  A    between atoms: C7_33  and  C7M_34
REMARK   11  A    between atoms: C8_35  and  C8M_36
REMARK   12  A    between atoms: N10_39  and  C1'_41
REMARK   13  A    between atoms: C1'_41  and  C2'_42
REMARK   14  A    between atoms: C2'_42  and  O2'_43
REMARK   15  A    between atoms: C2'_42  and  C3'_44
REMARK   16  A    between atoms: C3'_44  and  O3'_45
REMARK   17  A    between atoms: C3'_44  and  C4'_46
REMARK   18  A    between atoms: C4'_46  and  O4'_47
REMARK   19  A    between atoms: C4'_46  and  C5'_48
REMARK   20  A    between atoms: C5'_48  and  O5'_49
REMARK   21  A    between atoms: O5'_49  and  P_50
REMARK   22  A    between atoms: P_50  and  O2P_52
REMARK   23  A    between atoms: P_50  and  O3P_53
REMARK                            x       y       z     vdW  Elec       q    Type
REMARK                         _______ _______ _______ _____ _____    ______ ____
ROOT
ATOM      1  P   FAD     0      -5.356  -6.561   5.172  0.00  0.00    +0.000 P 
ATOM      2  O1P FAD     0      -6.232  -7.659   4.707  0.00  0.00    +0.000 OA
ENDROOT
BRANCH   1   3
ATOM      3  O2P FAD     0      -5.990  -5.890   6.490  0.00  0.00    +0.000 OA
ATOM      4 HOP2 FAD     0      -5.574  -5.022   6.589  0.00  0.00    +0.000 HD
ENDBRANCH   1   3
BRANCH   1   5
ATOM      5  O3P FAD     0      -5.227  -5.451   4.013  0.00  0.00    +0.000 OA
BRANCH   5   6
ATOM      6  PA  FAD     0      -4.680  -4.109   4.711  0.00  0.00    +0.000 P 
ATOM      7  O1A FAD     0      -3.972  -3.284   3.707  0.00  0.00    +0.000 OA
BRANCH   6   8
ATOM      8  O2A FAD     0      -3.663  -4.500   5.898  0.00  0.00    +0.000 OA
ATOM      9 HOA2 FAD     0      -2.867  -3.969   5.769  0.00  0.00    +0.000 HD
ENDBRANCH   6   8
BRANCH   6  10
ATOM     10  O5B FAD     0      -5.916  -3.274   5.317  0.00  0.00    +0.000 OA
BRANCH  10  11
ATOM     11  C5B FAD     0      -5.362  -2.301   6.203  0.00  0.00    +0.000 C 
BRANCH  11  12
ATOM     12  C4B FAD     0      -6.469  -1.737   7.096  0.00  0.00    +0.000 C 
ATOM     13  O4B FAD     0      -7.403  -0.986   6.302  0.00  0.00    +0.000 OA
ATOM     14  C3B FAD     0      -7.248  -2.889   7.758  0.00  0.00    +0.000 C 
ATOM     15  C2B FAD     0      -8.711  -2.672   7.291  0.00  0.00    +0.000 C 
ATOM     16  C1B FAD     0      -8.707  -1.174   6.895  0.00  0.00    +0.000 C 
BRANCH  16  17
ATOM     17  N9A FAD     0      -9.762  -0.892   5.920  0.00  0.00    +0.000 N 
ATOM     18  C8A FAD     0     -11.017  -0.437   6.197  0.00  0.00    +0.000 A 
ATOM     19  N7A FAD     0     -11.693  -0.296   5.094  0.00  0.00    +0.000 N 
ATOM     20  C5A FAD     0     -10.917  -0.649   4.042  0.00  0.00    +0.000 A 
ATOM     21  C6A FAD     0     -11.103  -0.700   2.650  0.00  0.00    +0.000 C 
ATOM     22  N1A FAD     0     -10.093  -1.111   1.891  0.00  0.00    +0.000 N 
ATOM     23  C2A FAD     0      -8.937  -1.464   2.423  0.00  0.00    +0.000 C 
ATOM     24  N3A FAD     0      -8.718  -1.433   3.720  0.00  0.00    +0.000 N 
ATOM     25  C4A FAD     0      -9.667  -1.032   4.558  0.00  0.00    +0.000 A 
BRANCH  21  26
ATOM     26  N6A FAD     0     -12.311  -0.331   2.083  0.00  0.00    +0.000 N 
ATOM     27 H61A FAD     0     -12.651  -0.811   1.312  0.00  0.00    +0.000 HD
ATOM     28 H62A FAD     0     -12.816   0.408   2.457  0.00  0.00    +0.000 HD
ENDBRANCH  21  26
ENDBRANCH  16  17
BRANCH  14  29
ATOM     29  O3B FAD     0      -7.161  -2.810   9.182  0.00  0.00    +0.000 OA
ATOM     30 HO3A FAD     0      -7.778  -2.121   9.462  0.00  0.00    +0.000 HD
ENDBRANCH  14  29
BRANCH  15  31
ATOM     31  O2B FAD     0      -9.629  -2.914   8.359  0.00  0.00    +0.000 OA
ATOM     32 HO2A FAD     0     -10.443  -3.249   7.957  0.00  0.00    +0.000 HD
ENDBRANCH  15  31
ENDBRANCH  11  12
ENDBRANCH  10  11
ENDBRANCH   6  10
ENDBRANCH   5   6
ENDBRANCH   1   5
BRANCH   1  33
ATOM     33  O5' FAD     0      -3.898  -7.149   5.517  0.00  0.00    +0.000 OA
BRANCH  33  34
ATOM     34  C5' FAD     0      -3.836  -8.460   4.954  0.00  0.00    +0.000 C 
BRANCH  34  35
ATOM     35  C4' FAD     0      -2.377  -8.909   4.864  0.00  0.00    +0.000 C 
BRANCH  35  36
ATOM     36  O4' FAD     0      -1.563  -8.041   5.655  0.00  0.00    +0.000 OA
ATOM     37 HO4' FAD     0      -1.577  -8.389   6.557  0.00  0.00    +0.000 HD
ENDBRANCH  35  36
BRANCH  35  38
ATOM     38  C3' FAD     0      -2.250 -10.341   5.386  0.00  0.00    +0.000 C 
BRANCH  38  39
ATOM     39  O3' FAD     0      -1.835 -11.200   4.323  0.00  0.00    +0.000 OA
ATOM     40 HO3' FAD     0      -0.890 -11.366   4.450  0.00  0.00    +0.000 HD
ENDBRANCH  38  39
BRANCH  38  41
ATOM     41  C2' FAD     0      -1.215 -10.384   6.512  0.00  0.00    +0.000 C 
BRANCH  41  42
ATOM     42  O2' FAD     0      -1.829 -10.872   7.706  0.00  0.00    +0.000 OA
ATOM     43 HO2' FAD     0      -2.743 -11.096   7.480  0.00  0.00    +0.000 HD
ENDBRANCH  41  42
BRANCH  41  44
ATOM     44  C1' FAD     0      -0.067 -11.315   6.113  0.00  0.00    +0.000 C 
BRANCH  44  61
ATOM     45  N1  FAD     0       1.246  -9.965   4.012  0.00  0.00    +0.000 N 
ATOM     46  C2  FAD     0       1.828  -9.342   2.992  0.00  0.00    +0.000 A 
ATOM     47  O2  FAD     0       1.268  -9.371   1.909  0.00  0.00    +0.000 OA
ATOM     48  N3  FAD     0       2.993  -8.684   3.078  0.00  0.00    +0.000 N 
ATOM     49  C4  FAD     0       3.672  -8.610   4.248  0.00  0.00    +0.000 A 
ATOM     50  O4  FAD     0       4.729  -8.015   4.328  0.00  0.00    +0.000 OA
ATOM     51  C4X FAD     0       3.073  -9.284   5.420  0.00  0.00    +0.000 A 
ATOM     52  N5  FAD     0       3.644  -9.274   6.597  0.00  0.00    +0.000 N 
ATOM     53  C5X FAD     0       3.073  -9.894   7.639  0.00  0.00    +0.000 C 
ATOM     54  C6  FAD     0       3.704  -9.871   8.899  0.00  0.00    +0.000 C 
ATOM     55  C7  FAD     0       3.127 -10.502   9.958  0.00  0.00    +0.000 C 
ATOM     56  C7M FAD     0       3.808 -10.474  11.302  0.00  0.00    +0.000 C 
ATOM     57  C8  FAD     0       1.920 -11.175   9.814  0.00  0.00    +0.000 C 
ATOM     58  C8M FAD     0       1.302 -11.866  11.003  0.00  0.00    +0.000 C 
ATOM     59  C9  FAD     0       1.277 -11.211   8.596  0.00  0.00    +0.000 C 
ATOM     60  C9A FAD     0       1.844 -10.574   7.494  0.00  0.00    +0.000 C 
ATOM     61  N10 FAD     0       1.208 -10.613   6.272  0.00  0.00    +0.000 N 
ATOM     62  C10 FAD     0       1.791  -9.978   5.218  0.00  0.00    +0.000 A 
ATOM     63  HN3 FAD     0       3.356  -8.254   2.289  0.00  0.00    +0.000 HD
ENDBRANCH  44  61
ENDBRANCH  41  44
ENDBRANCH  38  41
ENDBRANCH  35  38
ENDBRANCH  34  35
ENDBRANCH  33  34
ENDBRANCH   1  33
TORSDOF 21
ENDMDL
MODEL 4
REMARK VINA RESULT:    -9.503      3.876     12.941
REMARK INTER + INTRA:         -21.106
REMARK INTER:                 -18.236
REMARK INTRA:                  -2.870
REMARK UNBOUND:                -2.159
REMARK  Name = /home/esp/scriptDevelopment/voidDock/outputs/134189607_FAD/FAD.pdb
REMARK  23 active torsions:
REMARK  status: ('A' for Active; 'I' for Inactive)
REMARK    1  A    between atoms: PA_1  and  O2A_3
REMARK    2  A    between atoms: PA_1  and  O5B_4
REMARK    3  A    between atoms: PA_1  and  O3P_53
REMARK    4  A    between atoms: O5B_4  and  C5B_5
REMARK    5  A    between atoms: C5B_5  and  C4B_6
REMARK    6  A    between atoms: C3B_8  and  O3B_9
REMARK    7  A    between atoms: C2B_10  and  O2B_11
REMARK    8  A    between atoms: C1B_12  and  N9A_13
REMARK    9  A    between atoms: C6A_17  and  N6A_18
REMARK   10  A    between atoms: C7_33  and  C7M_34
REMARK   11  A    between atoms: C8_35  and  C8M_36
REMARK   12  A    between atoms: N10_39  and  C1'_41
REMARK   13  A    between atoms: C1'_41  and  C2'_42
REMARK   14  A    between atoms: C2'_42  and  O2'_43
REMARK   15  A    between atoms: C2'_42  and  C3'_44
REMARK   16  A    between atoms: C3'_44  and  O3'_45
REMARK   17  A    between atoms: C3'_44  and  C4'_46
REMARK   18  A    between atoms: C4'_46  and  O4'_47
REMARK   19  A    between atoms: C4'_46  and  C5'_48
REMARK   20  A    between atoms: C5'_48  and  O5'_49
REMARK   21  A    between atoms: O5'_49  and  P_50
REMARK   22  A    between atoms: P_50  and  O2P_52
REMARK   23  A    between atoms: P_50  and  O3P_53
REMARK                            x       y       z     vdW  Elec       q    Type
REMARK                         _______ _______ _______ _____ _____    ______ ____
ROOT
ATOM      1  P   FAD     0      -1.448  -6.068   5.659  0.00  0.00    +0.000 P 
ATOM      2  O1P FAD     0      -0.703  -5.230   6.624  0.00  0.00    +0.000 OA
ENDROOT
BRANCH   1   3
ATOM      3  O2P FAD     0      -1.412  -7.603   6.141  0.00  0.00    +0.000 OA
ATOM      4 HOP2 FAD     0      -1.187  -8.135   5.366  0.00  0.00    +0.000 HD
ENDBRANCH   1   3
BRANCH   1   5
ATOM      5  O3P FAD     0      -0.767  -5.946   4.206  0.00  0.00    +0.000 OA
BRANCH   5   6
ATOM      6  PA  FAD     0      -1.312  -7.181   3.330  0.00  0.00    +0.000 P 
ATOM      7  O1A FAD     0      -1.060  -6.917   1.895  0.00  0.00    +0.000 OA
BRANCH   6   8
ATOM      8  O2A FAD     0      -2.895  -7.352   3.574  0.00  0.00    +0.000 OA
ATOM      9 HOA2 FAD     0      -3.085  -6.977   4.443  0.00  0.00    +0.000 HD
ENDBRANCH   6   8
BRANCH   6  10
ATOM     10  O5B FAD     0      -0.552  -8.530   3.770  0.00  0.00    +0.000 OA
BRANCH  10  11
ATOM     11  C5B FAD     0       0.705  -8.537   3.091  0.00  0.00    +0.000 C 
BRANCH  11  12
ATOM     12  C4B FAD     0       1.837  -8.427   4.113  0.00  0.00    +0.000 C 
ATOM     13  O4B FAD     0       1.333  -8.697   5.432  0.00  0.00    +0.000 OA
ATOM     14  C3B FAD     0       2.921  -9.479   3.811  0.00  0.00    +0.000 C 
ATOM     15  C2B FAD     0       3.000 -10.323   5.110  0.00  0.00    +0.000 C 
ATOM     16  C1B FAD     0       2.388  -9.362   6.160  0.00  0.00    +0.000 C 
BRANCH  16  17
ATOM     17  N9A FAD     0       1.841 -10.111   7.292  0.00  0.00    +0.000 N 
ATOM     18  C8A FAD     0       0.720 -10.886   7.281  0.00  0.00    +0.000 A 
ATOM     19  N7A FAD     0       0.525 -11.404   8.459  0.00  0.00    +0.000 N 
ATOM     20  C5A FAD     0       1.506 -10.996   9.299  0.00  0.00    +0.000 A 
ATOM     21  C6A FAD     0       1.808 -11.225  10.652  0.00  0.00    +0.000 C 
ATOM     22  N1A FAD     0       2.885 -10.642  11.168  0.00  0.00    +0.000 N 
ATOM     23  C2A FAD     0       3.661  -9.865  10.434  0.00  0.00    +0.000 C 
ATOM     24  N3A FAD     0       3.416  -9.622   9.163  0.00  0.00    +0.000 N 
ATOM     25  C4A FAD     0       2.364 -10.164   8.560  0.00  0.00    +0.000 A 
BRANCH  21  26
ATOM     26  N6A FAD     0       1.002 -12.038  11.429  0.00  0.00    +0.000 N 
ATOM     27 H61A FAD     0       0.092 -11.770  11.629  0.00  0.00    +0.000 HD
ATOM     28 H62A FAD     0       1.348 -12.877  11.774  0.00  0.00    +0.000 HD
ENDBRANCH  21  26
ENDBRANCH  16  17
BRANCH  14  29
ATOM     29  O3B FAD     0       4.177  -8.852   3.545  0.00  0.00    +0.000 OA
ATOM     30 HO3A FAD     0       4.549  -8.597   4.400  0.00  0.00    +0.000 HD
ENDBRANCH  14  29
BRANCH  15  31
ATOM     31  O2B FAD     0       4.356 -10.636   5.433  0.00  0.00    +0.000 OA
ATOM     32 HO2A FAD     0       4.902 -10.284   4.716  0.00  0.00    +0.000 HD
ENDBRANCH  15  31
ENDBRANCH  11  12
ENDBRANCH  10  11
ENDBRANCH   6  10
ENDBRANCH   5   6
ENDBRANCH   1   5
BRANCH   1  33
ATOM     33  O5' FAD     0      -2.975  -5.566   5.581  0.00  0.00    +0.000 OA
BRANCH  33  34
ATOM     34  C5' FAD     0      -2.938  -4.177   5.251  0.00  0.00    +0.000 C 
BRANCH  34  35
ATOM     35  C4' FAD     0      -4.192  -3.489   5.793  0.00  0.00    +0.000 C 
BRANCH  35  36
ATOM     36  O4' FAD     0      -3.906  -2.112   6.045  0.00  0.00    +0.000 OA
ATOM     37 HO4' FAD     0      -2.968  -1.980   5.850  0.00  0.00    +0.000 HD
ENDBRANCH  35  36
BRANCH  35  38
ATOM     38  C3' FAD     0      -5.318  -3.594   4.763  0.00  0.00    +0.000 C 
BRANCH  38  39
ATOM     39  O3' FAD     0      -5.836  -4.926   4.759  0.00  0.00    +0.000 OA
ATOM     40 HO3' FAD     0      -6.671  -4.902   5.245  0.00  0.00    +0.000 HD
ENDBRANCH  38  39
BRANCH  38  41
ATOM     41  C2' FAD     0      -6.435  -2.614   5.126  0.00  0.00    +0.000 C 
BRANCH  41  42
ATOM     42  O2' FAD     0      -6.338  -1.454   4.297  0.00  0.00    +0.000 OA
ATOM     43 HO2' FAD     0      -6.321  -0.688   4.887  0.00  0.00    +0.000 HD
ENDBRANCH  41  42
BRANCH  41  44
ATOM     44  C1' FAD     0      -7.793  -3.284   4.907  0.00  0.00    +0.000 C 
BRANCH  44  61
ATOM     45  N1  FAD     0      -8.146  -2.447   7.578  0.00  0.00    +0.000 N 
ATOM     46  C2  FAD     0      -8.274  -2.080   8.850  0.00  0.00    +0.000 A 
ATOM     47  O2  FAD     0      -7.473  -2.521   9.656  0.00  0.00    +0.000 OA
ATOM     48  N3  FAD     0      -9.229  -1.254   9.302  0.00  0.00    +0.000 N 
ATOM     49  C4  FAD     0     -10.153  -0.725   8.465  0.00  0.00    +0.000 A 
ATOM     50  O4  FAD     0     -11.020   0.023   8.873  0.00  0.00    +0.000 OA
ATOM     51  C4X FAD     0     -10.062  -1.097   7.037  0.00  0.00    +0.000 A 
ATOM     52  N5  FAD     0     -10.902  -0.643   6.142  0.00  0.00    +0.000 N 
ATOM     53  C5X FAD     0     -10.790  -0.999   4.856  0.00  0.00    +0.000 C 
ATOM     54  C6  FAD     0     -11.706  -0.499   3.909  0.00  0.00    +0.000 C 
ATOM     55  C7  FAD     0     -11.595  -0.861   2.601  0.00  0.00    +0.000 C 
ATOM     56  C7M FAD     0     -12.578  -0.322   1.594  0.00  0.00    +0.000 C 
ATOM     57  C8  FAD     0     -10.589  -1.725   2.184  0.00  0.00    +0.000 C 
ATOM     58  C8M FAD     0     -10.489  -2.111   0.731  0.00  0.00    +0.000 C 
ATOM     59  C9  FAD     0      -9.677  -2.227   3.087  0.00  0.00    +0.000 C 
ATOM     60  C9A FAD     0      -9.766  -1.873   4.431  0.00  0.00    +0.000 C 
ATOM     61  N10 FAD     0      -8.859  -2.378   5.339  0.00  0.00    +0.000 N 
ATOM     62  C10 FAD     0      -8.976  -2.010   6.644  0.00  0.00    +0.000 A 
ATOM     63  HN3 FAD     0      -9.258  -1.032  10.244  0.00  0.00    +0.000 HD
ENDBRANCH  44  61
ENDBRANCH  41  44
ENDBRANCH  38  41
ENDBRANCH  35  38
ENDBRANCH  34  35
ENDBRANCH  33  34
ENDBRANCH   1  33
TORSDOF 21
ENDMDL
MODEL 5
REMARK VINA RESULT:    -9.491      4.993      7.655
REMARK INTER + INTRA:         -21.083
REMARK INTER:                 -19.139
REMARK INTRA:                  -1.944
REMARK UNBOUND:                -2.159
REMARK  Name = /home/esp/scriptDevelopment/voidDock/outputs/134189607_FAD/FAD.pdb
REMARK  23 active torsions:
REMARK  status: ('A' for Active; 'I' for Inactive)
REMARK    1  A    between atoms: PA_1  and  O2A_3
REMARK    2  A    between atoms: PA_1  and  O5B_4
REMARK    3  A    between atoms: PA_1  and  O3P_53
REMARK    4  A    between atoms: O5B_4  and  C5B_5
REMARK    5  A    between atoms: C5B_5  and  C4B_6
REMARK    6  A    between atoms: C3B_8  and  O3B_9
REMARK    7  A    between atoms: C2B_10  and  O2B_11
REMARK    8  A    between atoms: C1B_12  and  N9A_13
REMARK    9  A    between atoms: C6A_17  and  N6A_18
REMARK   10  A    between atoms: C7_33  and  C7M_34
REMARK   11  A    between atoms: C8_35  and  C8M_36
REMARK   12  A    between atoms: N10_39  and  C1'_41
REMARK   13  A    between atoms: C1'_41  and  C2'_42
REMARK   14  A    between atoms: C2'_42  and  O2'_43
REMARK   15  A    between atoms: C2'_42  and  C3'_44
REMARK   16  A    between atoms: C3'_44  and  O3'_45
REMARK   17  A    between atoms: C3'_44  and  C4'_46
REMARK   18  A    between atoms: C4'_46  and  O4'_47
REMARK   19  A    between atoms: C4'_46  and  C5'_48
REMARK   20  A    between atoms: C5'_48  and  O5'_49
REMARK   21  A    between atoms: O5'_49  and  P_50
REMARK   22  A    between atoms: P_50  and  O2P_52
REMARK   23  A    between atoms: P_50  and  O3P_53
REMARK                            x       y       z     vdW  Elec       q    Type
REMARK                         _______ _______ _______ _____ _____    ______ ____
ROOT
ATOM      1  P   FAD     0     -10.830  -0.917   6.730  0.00  0.00    +0.000 P 
ATOM      2  O1P FAD     0     -11.317  -0.288   7.977  0.00  0.00    +0.000 OA
ENDROOT
BRANCH   1   3
ATOM      3  O2P FAD     0     -11.355  -0.074   5.463  0.00  0.00    +0.000 OA
ATOM      4 HOP2 FAD     0     -12.112  -0.555   5.101  0.00  0.00    +0.000 HD
ENDBRANCH   1   3
BRANCH   1   5
ATOM      5  O3P FAD     0     -11.385  -2.425   6.638  0.00  0.00    +0.000 OA
BRANCH   5   6
ATOM      6  PA  FAD     0     -12.717  -2.379   5.737  0.00  0.00    +0.000 P 
ATOM      7  O1A FAD     0     -12.350  -2.124   4.326  0.00  0.00    +0.000 OA
BRANCH   6   8
ATOM      8  O2A FAD     0     -13.678  -1.199   6.264  0.00  0.00    +0.000 OA
ATOM      9 HOA2 FAD     0     -13.212  -0.368   6.105  0.00  0.00    +0.000 HD
ENDBRANCH   6   8
BRANCH   6  10
ATOM     10  O5B FAD     0     -13.490  -3.787   5.845  0.00  0.00    +0.000 OA
BRANCH  10  11
ATOM     11  C5B FAD     0     -14.824  -3.496   6.264  0.00  0.00    +0.000 C 
BRANCH  11  12
ATOM     12  C4B FAD     0     -15.658  -4.778   6.237  0.00  0.00    +0.000 C 
ATOM     13  O4B FAD     0     -15.224  -5.666   7.280  0.00  0.00    +0.000 OA
ATOM     14  C3B FAD     0     -17.139  -4.446   6.501  0.00  0.00    +0.000 C 
ATOM     15  C2B FAD     0     -17.492  -5.277   7.762  0.00  0.00    +0.000 C 
ATOM     16  C1B FAD     0     -16.394  -6.370   7.749  0.00  0.00    +0.000 C 
BRANCH  16  17
ATOM     17  N9A FAD     0     -16.172  -6.899   9.096  0.00  0.00    +0.000 N 
ATOM     18  C8A FAD     0     -16.655  -6.375  10.259  0.00  0.00    +0.000 A 
ATOM     19  N7A FAD     0     -16.264  -7.097  11.268  0.00  0.00    +0.000 N 
ATOM     20  C5A FAD     0     -15.509  -8.128  10.819  0.00  0.00    +0.000 A 
ATOM     21  C6A FAD     0     -14.835  -9.199  11.431  0.00  0.00    +0.000 C 
ATOM     22  N1A FAD     0     -14.167 -10.050  10.659  0.00  0.00    +0.000 N 
ATOM     23  C2A FAD     0     -14.132  -9.901   9.347  0.00  0.00    +0.000 C 
ATOM     24  N3A FAD     0     -14.747  -8.913   8.732  0.00  0.00    +0.000 N 
ATOM     25  C4A FAD     0     -15.444  -8.015   9.420  0.00  0.00    +0.000 A 
BRANCH  21  26
ATOM     26  N6A FAD     0     -14.867  -9.364  12.804  0.00  0.00    +0.000 N 
ATOM     27 H61A FAD     0     -15.691  -9.211  13.292  0.00  0.00    +0.000 HD
ATOM     28 H62A FAD     0     -14.065  -9.634  13.279  0.00  0.00    +0.000 HD
ENDBRANCH  21  26
ENDBRANCH  16  17
BRANCH  14  29
ATOM     29  O3B FAD     0     -17.954  -4.844   5.396  0.00  0.00    +0.000 OA
ATOM     30 HO3A FAD     0     -17.978  -4.098   4.783  0.00  0.00    +0.000 HD
ENDBRANCH  14  29
BRANCH  15  31
ATOM     31  O2B FAD     0     -18.792  -5.858   7.643  0.00  0.00    +0.000 OA
ATOM     32 HO2A FAD     0     -19.300  -5.285   7.051  0.00  0.00    +0.000 HD
ENDBRANCH  15  31
ENDBRANCH  11  12
ENDBRANCH  10  11
ENDBRANCH   6  10
ENDBRANCH   5   6
ENDBRANCH   1   5
BRANCH   1  33
ATOM     33  O5' FAD     0      -9.221  -0.936   6.732  0.00  0.00    +0.000 OA
BRANCH  33  34
ATOM     34  C5' FAD     0      -8.823  -2.306   6.768  0.00  0.00    +0.000 C 
BRANCH  34  35
ATOM     35  C4' FAD     0      -7.758  -2.558   5.699  0.00  0.00    +0.000 C 
BRANCH  35  36
ATOM     36  O4' FAD     0      -7.841  -1.543   4.698  0.00  0.00    +0.000 OA
ATOM     37 HO4' FAD     0      -7.748  -1.984   3.843  0.00  0.00    +0.000 HD
ENDBRANCH  35  36
BRANCH  35  38
ATOM     38  C3' FAD     0      -6.370  -2.527   6.342  0.00  0.00    +0.000 C 
BRANCH  38  39
ATOM     39  O3' FAD     0      -6.463  -1.945   7.644  0.00  0.00    +0.000 OA
ATOM     40 HO3' FAD     0      -6.832  -2.622   8.227  0.00  0.00    +0.000 HD
ENDBRANCH  38  39
BRANCH  38  41
ATOM     41  C2' FAD     0      -5.829  -3.953   6.458  0.00  0.00    +0.000 C 
BRANCH  41  42
ATOM     42  O2' FAD     0      -6.661  -4.707   7.341  0.00  0.00    +0.000 OA
ATOM     43 HO2' FAD     0      -6.149  -4.861   8.147  0.00  0.00    +0.000 HD
ENDBRANCH  41  42
BRANCH  41  44
ATOM     44  C1' FAD     0      -5.825  -4.610   5.076  0.00  0.00    +0.000 C 
BRANCH  44  61
ATOM     45  N1  FAD     0      -3.029  -4.237   5.035  0.00  0.00    +0.000 N 
ATOM     46  C2  FAD     0      -1.718  -4.012   5.016  0.00  0.00    +0.000 A 
ATOM     47  O2  FAD     0      -1.336  -2.854   5.009  0.00  0.00    +0.000 OA
ATOM     48  N3  FAD     0      -0.789  -4.979   5.004  0.00  0.00    +0.000 N 
ATOM     49  C4  FAD     0      -1.138  -6.287   5.011  0.00  0.00    +0.000 A 
ATOM     50  O4  FAD     0      -0.298  -7.166   4.998  0.00  0.00    +0.000 OA
ATOM     51  C4X FAD     0      -2.583  -6.600   5.032  0.00  0.00    +0.000 A 
ATOM     52  N5  FAD     0      -3.031  -7.830   5.041  0.00  0.00    +0.000 N 
ATOM     53  C5X FAD     0      -4.347  -8.078   5.062  0.00  0.00    +0.000 C 
ATOM     54  C6  FAD     0      -4.808  -9.410   5.072  0.00  0.00    +0.000 C 
ATOM     55  C7  FAD     0      -6.145  -9.665   5.091  0.00  0.00    +0.000 C 
ATOM     56  C7M FAD     0      -6.631 -11.091   5.101  0.00  0.00    +0.000 C 
ATOM     57  C8  FAD     0      -7.068  -8.625   5.098  0.00  0.00    +0.000 C 
ATOM     58  C8M FAD     0      -8.543  -8.934   5.119  0.00  0.00    +0.000 C 
ATOM     59  C9  FAD     0      -6.647  -7.313   5.094  0.00  0.00    +0.000 C 
ATOM     60  C9A FAD     0      -5.285  -7.022   5.074  0.00  0.00    +0.000 C 
ATOM     61  N10 FAD     0      -4.859  -5.711   5.063  0.00  0.00    +0.000 N 
ATOM     62  C10 FAD     0      -3.520  -5.465   5.045  0.00  0.00    +0.000 A 
ATOM     63  HN3 FAD     0       0.149  -4.737   4.990  0.00  0.00    +0.000 HD
ENDBRANCH  44  61
ENDBRANCH  41  44
ENDBRANCH  38  41
ENDBRANCH  35  38
ENDBRANCH  34  35
ENDBRANCH  33  34
ENDBRANCH   1  33
TORSDOF 21
ENDMDL
MODEL 6
REMARK VINA RESULT:    -9.484      3.871      7.016
REMARK INTER + INTRA:         -21.069
REMARK INTER:                 -17.950
REMARK INTRA:                  -3.119
REMARK UNBOUND:                -2.159
REMARK  Name = /home/esp/scriptDevelopment/voidDock/outputs/134189607_FAD/FAD.pdb
REMARK  23 active torsions:
REMARK  status: ('A' for Active; 'I' for Inactive)
REMARK    1  A    between atoms: PA_1  and  O2A_3
REMARK    2  A    between atoms: PA_1  and  O5B_4
REMARK    3  A    between atoms: PA_1  and  O3P_53
REMARK    4  A    between atoms: O5B_4  and  C5B_5
REMARK    5  A    between atoms: C5B_5  and  C4B_6
REMARK    6  A    between atoms: C3B_8  and  O3B_9
REMARK    7  A    between atoms: C2B_10  and  O2B_11
REMARK    8  A    between atoms: C1B_12  and  N9A_13
REMARK    9  A    between atoms: C6A_17  and  N6A_18
REMARK   10  A    between atoms: C7_33  and  C7M_34
REMARK   11  A    between atoms: C8_35  and  C8M_36
REMARK   12  A    between atoms: N10_39  and  C1'_41
REMARK   13  A    between atoms: C1'_41  and  C2'_42
REMARK   14  A    between atoms: C2'_42  and  O2'_43
REMARK   15  A    between atoms: C2'_42  and  C3'_44
REMARK   16  A    between atoms: C3'_44  and  O3'_45
REMARK   17  A    between atoms: C3'_44  and  C4'_46
REMARK   18  A    between atoms: C4'_46  and  O4'_47
REMARK   19  A    between atoms: C4'_46  and  C5'_48
REMARK   20  A    between atoms: C5'_48  and  O5'_49
REMARK   21  A    between atoms: O5'_49  and  P_50
REMARK   22  A    between atoms: P_50  and  O2P_52
REMARK   23  A    between atoms: P_50  and  O3P_53
REMARK                            x       y       z     vdW  Elec       q    Type
REMARK                         _______ _______ _______ _____ _____    ______ ____
ROOT
ATOM      1  P   FAD     0      -0.579  -6.615   3.368  0.00  0.00    +0.000 P 
ATOM      2  O1P FAD     0       0.587  -6.986   4.200  0.00  0.00    +0.000 OA
ENDROOT
BRANCH   1   3
ATOM      3  O2P FAD     0      -0.307  -7.044   1.841  0.00  0.00    +0.000 OA
ATOM      4 HOP2 FAD     0       0.430  -7.670   1.853  0.00  0.00    +0.000 HD
ENDBRANCH   1   3
BRANCH   1   5
ATOM      5  O3P FAD     0      -0.809  -5.024   3.446  0.00  0.00    +0.000 OA
BRANCH   5   6
ATOM      6  PA  FAD     0      -0.585  -4.595   4.980  0.00  0.00    +0.000 P 
ATOM      7  O1A FAD     0       0.852  -4.326   5.212  0.00  0.00    +0.000 OA
BRANCH   6   8
ATOM      8  O2A FAD     0      -1.071  -5.788   5.946  0.00  0.00    +0.000 OA
ATOM      9 HOA2 FAD     0      -1.882  -6.145   5.562  0.00  0.00    +0.000 HD
ENDBRANCH   6   8
BRANCH   6  10
ATOM     10  O5B FAD     0      -1.437  -3.266   5.298  0.00  0.00    +0.000 OA
BRANCH  10  11
ATOM     11  C5B FAD     0      -2.679  -3.396   4.603  0.00  0.00    +0.000 C 
BRANCH  11  12
ATOM     12  C4B FAD     0      -3.712  -4.050   5.522  0.00  0.00    +0.000 C 
ATOM     13  O4B FAD     0      -4.729  -3.096   5.872  0.00  0.00    +0.000 OA
ATOM     14  C3B FAD     0      -4.405  -5.214   4.787  0.00  0.00    +0.000 C 
ATOM     15  C2B FAD     0      -5.908  -4.832   4.811  0.00  0.00    +0.000 C 
ATOM     16  C1B FAD     0      -5.970  -3.826   5.987  0.00  0.00    +0.000 C 
BRANCH  16  17
ATOM     17  N9A FAD     0      -7.113  -2.925   5.840  0.00  0.00    +0.000 N 
ATOM     18  C8A FAD     0      -7.424  -2.188   4.735  0.00  0.00    +0.000 A 
ATOM     19  N7A FAD     0      -8.506  -1.498   4.951  0.00  0.00    +0.000 N 
ATOM     20  C5A FAD     0      -8.958  -1.748   6.202  0.00  0.00    +0.000 A 
ATOM     21  C6A FAD     0     -10.051  -1.302   6.966  0.00  0.00    +0.000 C 
ATOM     22  N1A FAD     0     -10.192  -1.769   8.202  0.00  0.00    +0.000 N 
ATOM     23  C2A FAD     0      -9.331  -2.632   8.710  0.00  0.00    +0.000 C 
ATOM     24  N3A FAD     0      -8.293  -3.075   8.033  0.00  0.00    +0.000 N 
ATOM     25  C4A FAD     0      -8.073  -2.668   6.787  0.00  0.00    +0.000 A 
BRANCH  21  26
ATOM     26  N6A FAD     0     -10.960  -0.399   6.441  0.00  0.00    +0.000 N 
ATOM     27 H61A FAD     0     -10.664   0.483   6.169  0.00  0.00    +0.000 HD
ATOM     28 H62A FAD     0     -11.892  -0.649   6.347  0.00  0.00    +0.000 HD
ENDBRANCH  21  26
ENDBRANCH  16  17
BRANCH  14  29
ATOM     29  O3B FAD     0      -4.191  -6.448   5.476  0.00  0.00    +0.000 OA
ATOM     30 HO3A FAD     0      -4.030  -7.121   4.801  0.00  0.00    +0.000 HD
ENDBRANCH  14  29
BRANCH  15  31
ATOM     31  O2B FAD     0      -6.721  -5.977   5.076  0.00  0.00    +0.000 OA
ATOM     32 HO2A FAD     0      -7.562  -5.648   5.422  0.00  0.00    +0.000 HD
ENDBRANCH  15  31
ENDBRANCH  11  12
ENDBRANCH  10  11
ENDBRANCH   6  10
ENDBRANCH   5   6
ENDBRANCH   1   5
BRANCH   1  33
ATOM     33  O5' FAD     0      -1.889  -7.375   3.913  0.00  0.00    +0.000 OA
BRANCH  33  34
ATOM     34  C5' FAD     0      -1.478  -8.690   4.290  0.00  0.00    +0.000 C 
BRANCH  34  35
ATOM     35  C4' FAD     0      -2.573  -9.345   5.134  0.00  0.00    +0.000 C 
BRANCH  35  36
ATOM     36  O4' FAD     0      -3.775  -9.435   4.366  0.00  0.00    +0.000 OA
ATOM     37 HO4' FAD     0      -3.725  -8.749   3.687  0.00  0.00    +0.000 HD
ENDBRANCH  35  36
BRANCH  35  38
ATOM     38  C3' FAD     0      -2.127 -10.750   5.546  0.00  0.00    +0.000 C 
BRANCH  38  39
ATOM     39  O3' FAD     0      -1.590 -11.431   4.411  0.00  0.00    +0.000 OA
ATOM     40 HO3' FAD     0      -2.070 -12.266   4.333  0.00  0.00    +0.000 HD
ENDBRANCH  38  39
BRANCH  38  41
ATOM     41  C2' FAD     0      -1.057 -10.646   6.634  0.00  0.00    +0.000 C 
BRANCH  41  42
ATOM     42  O2' FAD     0      -1.601 -11.083   7.881  0.00  0.00    +0.000 OA
ATOM     43 HO2' FAD     0      -1.837 -12.015   7.772  0.00  0.00    +0.000 HD
ENDBRANCH  41  42
BRANCH  41  44
ATOM     44  C1' FAD     0       0.136 -11.531   6.261  0.00  0.00    +0.000 C 
BRANCH  44  61
ATOM     45  N1  FAD     0       1.446 -10.209   4.141  0.00  0.00    +0.000 N 
ATOM     46  C2  FAD     0       2.028  -9.602   3.111  0.00  0.00    +0.000 A 
ATOM     47  O2  FAD     0       1.497  -9.697   2.017  0.00  0.00    +0.000 OA
ATOM     48  N3  FAD     0       3.162  -8.893   3.199  0.00  0.00    +0.000 N 
ATOM     49  C4  FAD     0       3.807  -8.745   4.380  0.00  0.00    +0.000 A 
ATOM     50  O4  FAD     0       4.836  -8.103   4.463  0.00  0.00    +0.000 OA
ATOM     51  C4X FAD     0       3.207  -9.398   5.564  0.00  0.00    +0.000 A 
ATOM     52  N5  FAD     0       3.746  -9.318   6.753  0.00  0.00    +0.000 N 
ATOM     53  C5X FAD     0       3.175  -9.920   7.804  0.00  0.00    +0.000 C 
ATOM     54  C6  FAD     0       3.772  -9.822   9.077  0.00  0.00    +0.000 C 
ATOM     55  C7  FAD     0       3.194 -10.436  10.147  0.00  0.00    +0.000 C 
ATOM     56  C7M FAD     0       3.838 -10.327  11.505  0.00  0.00    +0.000 C 
ATOM     57  C8  FAD     0       2.019 -11.164  10.001  0.00  0.00    +0.000 C 
ATOM     58  C8M FAD     0       1.400 -11.834  11.201  0.00  0.00    +0.000 C 
ATOM     59  C9  FAD     0       1.410 -11.274   8.770  0.00  0.00    +0.000 C 
ATOM     60  C9A FAD     0       1.979 -10.657   7.658  0.00  0.00    +0.000 C 
ATOM     61  N10 FAD     0       1.376 -10.770   6.423  0.00  0.00    +0.000 N 
ATOM     62  C10 FAD     0       1.959 -10.153   5.359  0.00  0.00    +0.000 A 
ATOM     63  HN3 FAD     0       3.527  -8.479   2.403  0.00  0.00    +0.000 HD
ENDBRANCH  44  61
ENDBRANCH  41  44
ENDBRANCH  38  41
ENDBRANCH  35  38
ENDBRANCH  34  35
ENDBRANCH  33  34
ENDBRANCH   1  33
TORSDOF 21
ENDMDL
MODEL 7
REMARK VINA RESULT:    -9.422      3.304      4.889
REMARK INTER + INTRA:         -20.945
REMARK INTER:                 -18.876
REMARK INTRA:                  -2.070
REMARK UNBOUND:                -2.159
REMARK  Name = /home/esp/scriptDevelopment/voidDock/outputs/134189607_FAD/FAD.pdb
REMARK  23 active torsions:
REMARK  status: ('A' for Active; 'I' for Inactive)
REMARK    1  A    between atoms: PA_1  and  O2A_3
REMARK    2  A    between atoms: PA_1  and  O5B_4
REMARK    3  A    between atoms: PA_1  and  O3P_53
REMARK    4  A    between atoms: O5B_4  and  C5B_5
REMARK    5  A    between atoms: C5B_5  and  C4B_6
REMARK    6  A    between atoms: C3B_8  and  O3B_9
REMARK    7  A    between atoms: C2B_10  and  O2B_11
REMARK    8  A    between atoms: C1B_12  and  N9A_13
REMARK    9  A    between atoms: C6A_17  and  N6A_18
REMARK   10  A    between atoms: C7_33  and  C7M_34
REMARK   11  A    between atoms: C8_35  and  C8M_36
REMARK   12  A    between atoms: N10_39  and  C1'_41
REMARK   13  A    between atoms: C1'_41  and  C2'_42
REMARK   14  A    between atoms: C2'_42  and  O2'_43
REMARK   15  A    between atoms: C2'_42  and  C3'_44
REMARK   16  A    between atoms: C3'_44  and  O3'_45
REMARK   17  A    between atoms: C3'_44  and  C4'_46
REMARK   18  A    between atoms: C4'_46  and  O4'_47
REMARK   19  A    between atoms: C4'_46  and  C5'_48
REMARK   20  A    between atoms: C5'_48  and  O5'_49
REMARK   21  A    between atoms: O5'_49  and  P_50
REMARK   22  A    between atoms: P_50  and  O2P_52
REMARK   23  A    between atoms: P_50  and  O3P_53
REMARK                            x       y       z     vdW  Elec       q    Type
REMARK                         _______ _______ _______ _____ _____    ______ ____
ROOT
ATOM      1  P   FAD     0      -4.894  -5.999   4.955  0.00  0.00    +0.000 P 
ATOM      2  O1P FAD     0      -4.615  -5.792   3.516  0.00  0.00    +0.000 OA
ENDROOT
BRANCH   1   3
ATOM      3  O2P FAD     0      -6.445  -6.379   5.152  0.00  0.00    +0.000 OA
ATOM      4 HOP2 FAD     0      -6.887  -6.196   4.311  0.00  0.00    +0.000 HD
ENDBRANCH   1   3
BRANCH   1   5
ATOM      5  O3P FAD     0      -4.566  -4.647   5.764  0.00  0.00    +0.000 OA
BRANCH   5   6
ATOM      6  PA  FAD     0      -5.958  -3.862   5.945  0.00  0.00    +0.000 P 
ATOM      7  O1A FAD     0      -6.723  -4.464   7.060  0.00  0.00    +0.000 OA
BRANCH   6   8
ATOM      8  O2A FAD     0      -6.815  -3.971   4.586  0.00  0.00    +0.000 OA
ATOM      9 HOA2 FAD     0      -7.160  -3.088   4.402  0.00  0.00    +0.000 HD
ENDBRANCH   6   8
BRANCH   6  10
ATOM     10  O5B FAD     0      -5.664  -2.313   6.271  0.00  0.00    +0.000 OA
BRANCH  10  11
ATOM     11  C5B FAD     0      -6.395  -1.994   7.457  0.00  0.00    +0.000 C 
BRANCH  11  12
ATOM     12  C4B FAD     0      -7.646  -1.197   7.085  0.00  0.00    +0.000 C 
ATOM     13  O4B FAD     0      -8.043  -1.508   5.739  0.00  0.00    +0.000 OA
ATOM     14  C3B FAD     0      -8.813  -1.590   8.012  0.00  0.00    +0.000 C 
ATOM     15  C2B FAD     0      -9.909  -2.101   7.041  0.00  0.00    +0.000 C 
ATOM     16  C1B FAD     0      -9.485  -1.450   5.700  0.00  0.00    +0.000 C 
BRANCH  16  17
ATOM     17  N9A FAD     0     -10.001  -2.217   4.565  0.00  0.00    +0.000 N 
ATOM     18  C8A FAD     0     -10.518  -3.477   4.610  0.00  0.00    +0.000 A 
ATOM     19  N7A FAD     0     -10.880  -3.853   3.418  0.00  0.00    +0.000 N 
ATOM     20  C5A FAD     0     -10.621  -2.860   2.534  0.00  0.00    +0.000 A 
ATOM     21  C6A FAD     0     -10.794  -2.700   1.149  0.00  0.00    +0.000 C 
ATOM     22  N1A FAD     0     -10.412  -1.555   0.592  0.00  0.00    +0.000 N 
ATOM     23  C2A FAD     0      -9.884  -0.585   1.315  0.00  0.00    +0.000 C 
ATOM     24  N3A FAD     0      -9.702  -0.691   2.614  0.00  0.00    +0.000 N 
ATOM     25  C4A FAD     0     -10.057  -1.797   3.260  0.00  0.00    +0.000 A 
BRANCH  21  26
ATOM     26  N6A FAD     0     -11.348  -3.711   0.383  0.00  0.00    +0.000 N 
ATOM     27 H61A FAD     0     -11.191  -4.638   0.618  0.00  0.00    +0.000 HD
ATOM     28 H62A FAD     0     -11.893  -3.491  -0.389  0.00  0.00    +0.000 HD
ENDBRANCH  21  26
ENDBRANCH  16  17
BRANCH  14  29
ATOM     29  O3B FAD     0      -9.283  -0.456   8.744  0.00  0.00    +0.000 OA
ATOM     30 HO3A FAD     0      -9.798  -0.798   9.488  0.00  0.00    +0.000 HD
ENDBRANCH  14  29
BRANCH  15  31
ATOM     31  O2B FAD     0     -11.201  -1.643   7.444  0.00  0.00    +0.000 OA
ATOM     32 HO2A FAD     0     -11.121  -0.694   7.612  0.00  0.00    +0.000 HD
ENDBRANCH  15  31
ENDBRANCH  11  12
ENDBRANCH  10  11
ENDBRANCH   6  10
ENDBRANCH   5   6
ENDBRANCH   1   5
BRANCH   1  33
ATOM     33  O5' FAD     0      -3.974  -7.196   5.511  0.00  0.00    +0.000 OA
BRANCH  33  34
ATOM     34  C5' FAD     0      -4.247  -8.340   4.701  0.00  0.00    +0.000 C 
BRANCH  34  35
ATOM     35  C4' FAD     0      -2.939  -9.066   4.384  0.00  0.00    +0.000 C 
BRANCH  35  36
ATOM     36  O4' FAD     0      -2.015  -8.147   3.799  0.00  0.00    +0.000 OA
ATOM     37 HO4' FAD     0      -2.371  -7.260   3.945  0.00  0.00    +0.000 HD
ENDBRANCH  35  36
BRANCH  35  38
ATOM     38  C3' FAD     0      -2.344  -9.634   5.674  0.00  0.00    +0.000 C 
BRANCH  38  39
ATOM     39  O3' FAD     0      -2.424 -11.060   5.648  0.00  0.00    +0.000 OA
ATOM     40 HO3' FAD     0      -3.335 -11.284   5.413  0.00  0.00    +0.000 HD
ENDBRANCH  38  39
BRANCH  38  41
ATOM     41  C2' FAD     0      -0.879  -9.208   5.791  0.00  0.00    +0.000 C 
BRANCH  41  42
ATOM     42  O2' FAD     0      -0.753  -8.213   6.809  0.00  0.00    +0.000 OA
ATOM     43 HO2' FAD     0      -0.443  -7.406   6.375  0.00  0.00    +0.000 HD
ENDBRANCH  41  42
BRANCH  41  44
ATOM     44  C1' FAD     0      -0.022 -10.422   6.157  0.00  0.00    +0.000 C 
BRANCH  44  61
ATOM     45  N1  FAD     0       1.562  -9.243   4.143  0.00  0.00    +0.000 N 
ATOM     46  C2  FAD     0       2.271  -8.691   3.162  0.00  0.00    +0.000 A 
ATOM     47  O2  FAD     0       1.732  -8.547   2.079  0.00  0.00    +0.000 OA
ATOM     48  N3  FAD     0       3.542  -8.284   3.291  0.00  0.00    +0.000 N 
ATOM     49  C4  FAD     0       4.205  -8.412   4.464  0.00  0.00    +0.000 A 
ATOM     50  O4  FAD     0       5.358  -8.044   4.583  0.00  0.00    +0.000 OA
ATOM     51  C4X FAD     0       3.468  -9.019   5.594  0.00  0.00    +0.000 A 
ATOM     52  N5  FAD     0       4.012  -9.189   6.771  0.00  0.00    +0.000 N 
ATOM     53  C5X FAD     0       3.315  -9.741   7.773  0.00  0.00    +0.000 C 
ATOM     54  C6  FAD     0       3.920  -9.916   9.034  0.00  0.00    +0.000 C 
ATOM     55  C7  FAD     0       3.214 -10.479  10.053  0.00  0.00    +0.000 C 
ATOM     56  C7M FAD     0       3.867 -10.663  11.398  0.00  0.00    +0.000 C 
ATOM     57  C8  FAD     0       1.899 -10.890   9.866  0.00  0.00    +0.000 C 
ATOM     58  C8M FAD     0       1.140 -11.511  11.010  0.00  0.00    +0.000 C 
ATOM     59  C9  FAD     0       1.280 -10.728   8.646  0.00  0.00    +0.000 C 
ATOM     60  C9A FAD     0       1.977 -10.155   7.585  0.00  0.00    +0.000 C 
ATOM     61  N10 FAD     0       1.364  -9.997   6.361  0.00  0.00    +0.000 N 
ATOM     62  C10 FAD     0       2.076  -9.432   5.347  0.00  0.00    +0.000 A 
ATOM     63  HN3 FAD     0       3.994  -7.890   2.530  0.00  0.00    +0.000 HD
ENDBRANCH  44  61
ENDBRANCH  41  44
ENDBRANCH  38  41
ENDBRANCH  35  38
ENDBRANCH  34  35
ENDBRANCH  33  34
ENDBRANCH   1  33
TORSDOF 21
ENDMDL
MODEL 8
REMARK VINA RESULT:    -9.299      3.531      6.166
REMARK INTER + INTRA:         -20.700
REMARK INTER:                 -18.434
REMARK INTRA:                  -2.265
REMARK UNBOUND:                -2.159
REMARK  Name = /home/esp/scriptDevelopment/voidDock/outputs/134189607_FAD/FAD.pdb
REMARK  23 active torsions:
REMARK  status: ('A' for Active; 'I' for Inactive)
REMARK    1  A    between atoms: PA_1  and  O2A_3
REMARK    2  A    between atoms: PA_1  and  O5B_4
REMARK    3  A    between atoms: PA_1  and  O3P_53
REMARK    4  A    between atoms: O5B_4  and  C5B_5
REMARK    5  A    between atoms: C5B_5  and  C4B_6
REMARK    6  A    between atoms: C3B_8  and  O3B_9
REMARK    7  A    between atoms: C2B_10  and  O2B_11
REMARK    8  A    between atoms: C1B_12  and  N9A_13
REMARK    9  A    between atoms: C6A_17  and  N6A_18
REMARK   10  A    between atoms: C7_33  and  C7M_34
REMARK   11  A    between atoms: C8_35  and  C8M_36
REMARK   12  A    between atoms: N10_39  and  C1'_41
REMARK   13  A    between atoms: C1'_41  and  C2'_42
REMARK   14  A    between atoms: C2'_42  and  O2'_43
REMARK   15  A    between atoms: C2'_42  and  C3'_44
REMARK   16  A    between atoms: C3'_44  and  O3'_45
REMARK   17  A    between atoms: C3'_44  and  C4'_46
REMARK   18  A    between atoms: C4'_46  and  O4'_47
REMARK   19  A    between atoms: C4'_46  and  C5'_48
REMARK   20  A    between atoms: C5'_48  and  O5'_49
REMARK   21  A    between atoms: O5'_49  and  P_50
REMARK   22  A    between atoms: P_50  and  O2P_52
REMARK   23  A    between atoms: P_50  and  O3P_53
REMARK                            x       y       z     vdW  Elec       q    Type
REMARK                         _______ _______ _______ _____ _____    ______ ____
ROOT
ATOM      1  P   FAD     0      -1.325  -6.542   3.438  0.00  0.00    +0.000 P 
ATOM      2  O1P FAD     0       0.149  -6.410   3.440  0.00  0.00    +0.000 OA
ENDROOT
BRANCH   1   3
ATOM      3  O2P FAD     0      -1.906  -6.056   2.018  0.00  0.00    +0.000 OA
ATOM      4 HOP2 FAD     0      -1.655  -6.727   1.369  0.00  0.00    +0.000 HD
ENDBRANCH   1   3
BRANCH   1   5
ATOM      5  O3P FAD     0      -1.947  -5.633   4.612  0.00  0.00    +0.000 OA
BRANCH   5   6
ATOM      6  PA  FAD     0      -3.255  -4.920   4.007  0.00  0.00    +0.000 P 
ATOM      7  O1A FAD     0      -4.047  -5.909   3.242  0.00  0.00    +0.000 OA
BRANCH   6   8
ATOM      8  O2A FAD     0      -2.807  -3.720   3.030  0.00  0.00    +0.000 OA
ATOM      9 HOA2 FAD     0      -1.874  -3.548   3.210  0.00  0.00    +0.000 HD
ENDBRANCH   6   8
BRANCH   6  10
ATOM     10  O5B FAD     0      -4.150  -4.328   5.207  0.00  0.00    +0.000 OA
BRANCH  10  11
ATOM     11  C5B FAD     0      -5.485  -4.213   4.711  0.00  0.00    +0.000 C 
BRANCH  11  12
ATOM     12  C4B FAD     0      -6.085  -2.882   5.165  0.00  0.00    +0.000 C 
ATOM     13  O4B FAD     0      -7.423  -2.750   4.657  0.00  0.00    +0.000 OA
ATOM     14  C3B FAD     0      -6.169  -2.842   6.703  0.00  0.00    +0.000 C 
ATOM     15  C2B FAD     0      -7.678  -2.625   6.991  0.00  0.00    +0.000 C 
ATOM     16  C1B FAD     0      -8.183  -2.031   5.653  0.00  0.00    +0.000 C 
BRANCH  16  17
ATOM     17  N9A FAD     0      -9.616  -2.277   5.484  0.00  0.00    +0.000 N 
ATOM     18  C8A FAD     0     -10.183  -3.326   4.822  0.00  0.00    +0.000 A 
ATOM     19  N7A FAD     0     -11.480  -3.231   4.867  0.00  0.00    +0.000 N 
ATOM     20  C5A FAD     0     -11.828  -2.120   5.558  0.00  0.00    +0.000 A 
ATOM     21  C6A FAD     0     -13.047  -1.521   5.918  0.00  0.00    +0.000 C 
ATOM     22  N1A FAD     0     -13.015  -0.393   6.621  0.00  0.00    +0.000 N 
ATOM     23  C2A FAD     0     -11.870   0.158   6.978  0.00  0.00    +0.000 C 
ATOM     24  N3A FAD     0     -10.705  -0.367   6.663  0.00  0.00    +0.000 N 
ATOM     25  C4A FAD     0     -10.637  -1.496   5.965  0.00  0.00    +0.000 A 
BRANCH  21  26
ATOM     26  N6A FAD     0     -14.253  -2.092   5.549  0.00  0.00    +0.000 N 
ATOM     27 H61A FAD     0     -14.276  -2.769   4.855  0.00  0.00    +0.000 HD
ATOM     28 H62A FAD     0     -15.074  -1.814   5.984  0.00  0.00    +0.000 HD
ENDBRANCH  21  26
ENDBRANCH  16  17
BRANCH  14  29
ATOM     29  O3B FAD     0      -5.400  -1.757   7.226  0.00  0.00    +0.000 OA
ATOM     30 HO3A FAD     0      -5.721  -1.592   8.122  0.00  0.00    +0.000 HD
ENDBRANCH  14  29
BRANCH  15  31
ATOM     31  O2B FAD     0      -7.864  -1.699   8.063  0.00  0.00    +0.000 OA
ATOM     32 HO2A FAD     0      -7.347  -0.911   7.844  0.00  0.00    +0.000 HD
ENDBRANCH  15  31
ENDBRANCH  11  12
ENDBRANCH  10  11
ENDBRANCH   6  10
ENDBRANCH   5   6
ENDBRANCH   1   5
BRANCH   1  33
ATOM     33  O5' FAD     0      -1.725  -8.082   3.682  0.00  0.00    +0.000 OA
BRANCH  33  34
ATOM     34  C5' FAD     0      -1.875  -8.253   5.091  0.00  0.00    +0.000 C 
BRANCH  34  35
ATOM     35  C4' FAD     0      -2.945  -9.309   5.367  0.00  0.00    +0.000 C 
BRANCH  35  36
ATOM     36  O4' FAD     0      -3.844  -9.376   4.259  0.00  0.00    +0.000 OA
ATOM     37 HO4' FAD     0      -4.597  -8.809   4.474  0.00  0.00    +0.000 HD
ENDBRANCH  35  36
BRANCH  35  38
ATOM     38  C3' FAD     0      -2.279 -10.673   5.564  0.00  0.00    +0.000 C 
BRANCH  38  39
ATOM     39  O3' FAD     0      -1.709 -11.106   4.328  0.00  0.00    +0.000 OA
ATOM     40 HO3' FAD     0      -0.764 -11.237   4.487  0.00  0.00    +0.000 HD
ENDBRANCH  38  39
BRANCH  38  41
ATOM     41  C2' FAD     0      -1.179 -10.555   6.621  0.00  0.00    +0.000 C 
BRANCH  41  42
ATOM     42  O2' FAD     0      -1.684 -10.992   7.884  0.00  0.00    +0.000 OA
ATOM     43 HO2' FAD     0      -2.331 -11.687   7.702  0.00  0.00    +0.000 HD
ENDBRANCH  41  42
BRANCH  41  44
ATOM     44  C1' FAD     0       0.010 -11.430   6.218  0.00  0.00    +0.000 C 
BRANCH  44  61
ATOM     45  N1  FAD     0       1.283 -10.035   4.122  0.00  0.00    +0.000 N 
ATOM     46  C2  FAD     0       1.848  -9.393   3.103  0.00  0.00    +0.000 A 
ATOM     47  O2  FAD     0       1.300  -9.452   2.016  0.00  0.00    +0.000 OA
ATOM     48  N3  FAD     0       2.982  -8.684   3.197  0.00  0.00    +0.000 N 
ATOM     49  C4  FAD     0       3.645  -8.574   4.372  0.00  0.00    +0.000 A 
ATOM     50  O4  FAD     0       4.674  -7.933   4.460  0.00  0.00    +0.000 OA
ATOM     51  C4X FAD     0       3.065  -9.268   5.543  0.00  0.00    +0.000 A 
ATOM     52  N5  FAD     0       3.623  -9.227   6.726  0.00  0.00    +0.000 N 
ATOM     53  C5X FAD     0       3.071  -9.865   7.765  0.00  0.00    +0.000 C 
ATOM     54  C6  FAD     0       3.688  -9.808   9.031  0.00  0.00    +0.000 C 
ATOM     55  C7  FAD     0       3.129 -10.458  10.088  0.00  0.00    +0.000 C 
ATOM     56  C7M FAD     0       3.795 -10.393  11.439  0.00  0.00    +0.000 C 
ATOM     57  C8  FAD     0       1.953 -11.184   9.937  0.00  0.00    +0.000 C 
ATOM     58  C8M FAD     0       1.355 -11.895  11.123  0.00  0.00    +0.000 C 
ATOM     59  C9  FAD     0       1.325 -11.255   8.713  0.00  0.00    +0.000 C 
ATOM     60  C9A FAD     0       1.874 -10.599   7.613  0.00  0.00    +0.000 C 
ATOM     61  N10 FAD     0       1.252 -10.672   6.385  0.00  0.00    +0.000 N 
ATOM     62  C10 FAD     0       1.816 -10.018   5.333  0.00  0.00    +0.000 A 
ATOM     63  HN3 FAD     0       3.333  -8.243   2.410  0.00  0.00    +0.000 HD
ENDBRANCH  44  61
ENDBRANCH  41  44
ENDBRANCH  38  41
ENDBRANCH  35  38
ENDBRANCH  34  35
ENDBRANCH  33  34
ENDBRANCH   1  33
TORSDOF 21
ENDMDL
MODEL 9
REMARK VINA RESULT:    -9.290      7.427      9.975
REMARK INTER + INTRA:         -20.681
REMARK INTER:                 -17.107
REMARK INTRA:                  -3.574
REMARK UNBOUND:                -2.159
REMARK  Name = /home/esp/scriptDevelopment/voidDock/outputs/134189607_FAD/FAD.pdb
REMARK  23 active torsions:
REMARK  status: ('A' for Active; 'I' for Inactive)
REMARK    1  A    between atoms: PA_1  and  O2A_3
REMARK    2  A    between atoms: PA_1  and  O5B_4
REMARK    3  A    between atoms: PA_1  and  O3P_53
REMARK    4  A    between atoms: O5B_4  and  C5B_5
REMARK    5  A    between atoms: C5B_5  and  C4B_6
REMARK    6  A    between atoms: C3B_8  and  O3B_9
REMARK    7  A    between atoms: C2B_10  and  O2B_11
REMARK    8  A    between atoms: C1B_12  and  N9A_13
REMARK    9  A    between atoms: C6A_17  and  N6A_18
REMARK   10  A    between atoms: C7_33  and  C7M_34
REMARK   11  A    between atoms: C8_35  and  C8M_36
REMARK   12  A    between atoms: N10_39  and  C1'_41
REMARK   13  A    between atoms: C1'_41  and  C2'_42
REMARK   14  A    between atoms: C2'_42  and  O2'_43
REMARK   15  A    between atoms: C2'_42  and  C3'_44
REMARK   16  A    between atoms: C3'_44  and  O3'_45
REMARK   17  A    between atoms: C3'_44  and  C4'_46
REMARK   18  A    between atoms: C4'_46  and  O4'_47
REMARK   19  A    between atoms: C4'_46  and  C5'_48
REMARK   20  A    between atoms: C5'_48  and  O5'_49
REMARK   21  A    between atoms: O5'_49  and  P_50
REMARK   22  A    between atoms: P_50  and  O2P_52
REMARK   23  A    between atoms: P_50  and  O3P_53
REMARK                            x       y       z     vdW  Elec       q    Type
REMARK                         _______ _______ _______ _____ _____    ______ ____
ROOT
ATOM      1  P   FAD     0      -2.265  -5.786   2.836  0.00  0.00    +0.000 P 
ATOM      2  O1P FAD     0      -3.274  -6.250   1.858  0.00  0.00    +0.000 OA
ENDROOT
BRANCH   1   3
ATOM      3  O2P FAD     0      -2.248  -4.177   2.868  0.00  0.00    +0.000 OA
ATOM      4 HOP2 FAD     0      -3.168  -3.889   2.948  0.00  0.00    +0.000 HD
ENDBRANCH   1   3
BRANCH   1   5
ATOM      5  O3P FAD     0      -0.812  -6.330   2.406  0.00  0.00    +0.000 OA
BRANCH   5   6
ATOM      6  PA  FAD     0       0.270  -5.335   3.059  0.00  0.00    +0.000 P 
ATOM      7  O1A FAD     0       1.572  -6.030   3.176  0.00  0.00    +0.000 OA
BRANCH   6   8
ATOM      8  O2A FAD     0      -0.231  -4.885   4.522  0.00  0.00    +0.000 OA
ATOM      9 HOA2 FAD     0       0.079  -3.980   4.657  0.00  0.00    +0.000 HD
ENDBRANCH   6   8
BRANCH   6  10
ATOM     10  O5B FAD     0       0.438  -4.034   2.126  0.00  0.00    +0.000 OA
BRANCH  10  11
ATOM     11  C5B FAD     0       1.694  -3.442   2.463  0.00  0.00    +0.000 C 
BRANCH  11  12
ATOM     12  C4B FAD     0       1.456  -2.177   3.290  0.00  0.00    +0.000 C 
ATOM     13  O4B FAD     0       2.374  -1.148   2.885  0.00  0.00    +0.000 OA
ATOM     14  C3B FAD     0       0.031  -1.647   3.040  0.00  0.00    +0.000 C 
ATOM     15  C2B FAD     0       0.253  -0.208   2.505  0.00  0.00    +0.000 C 
ATOM     16  C1B FAD     0       1.680   0.112   3.014  0.00  0.00    +0.000 C 
BRANCH  16  17
ATOM     17  N9A FAD     0       2.311   1.136   2.180  0.00  0.00    +0.000 N 
ATOM     18  C8A FAD     0       3.119   0.916   1.104  0.00  0.00    +0.000 A 
ATOM     19  N7A FAD     0       3.505   2.051   0.599  0.00  0.00    +0.000 N 
ATOM     20  C5A FAD     0       2.971   3.069   1.315  0.00  0.00    +0.000 A 
ATOM     21  C6A FAD     0       3.035   4.471   1.240  0.00  0.00    +0.000 C 
ATOM     22  N1A FAD     0       2.365   5.184   2.138  0.00  0.00    +0.000 N 
ATOM     23  C2A FAD     0       1.652   4.599   3.083  0.00  0.00    +0.000 C 
ATOM     24  N3A FAD     0       1.564   3.290   3.192  0.00  0.00    +0.000 N 
ATOM     25  C4A FAD     0       2.196   2.495   2.336  0.00  0.00    +0.000 A 
BRANCH  21  26
ATOM     26  N6A FAD     0       3.779   5.094   0.252  0.00  0.00    +0.000 N 
ATOM     27 H61A FAD     0       4.168   4.569  -0.465  0.00  0.00    +0.000 HD
ATOM     28 H62A FAD     0       3.912   6.054   0.278  0.00  0.00    +0.000 HD
ENDBRANCH  21  26
ENDBRANCH  16  17
BRANCH  14  29
ATOM     29  O3B FAD     0      -0.721  -1.618   4.255  0.00  0.00    +0.000 OA
ATOM     30 HO3A FAD     0      -0.236  -2.154   4.897  0.00  0.00    +0.000 HD
ENDBRANCH  14  29
BRANCH  15  31
ATOM     31  O2B FAD     0      -0.703   0.696   3.062  0.00  0.00    +0.000 OA
ATOM     32 HO2A FAD     0      -0.249   1.541   3.184  0.00  0.00    +0.000 HD
ENDBRANCH  15  31
ENDBRANCH  11  12
ENDBRANCH  10  11
ENDBRANCH   6  10
ENDBRANCH   5   6
ENDBRANCH   1   5
BRANCH   1  33
ATOM     33  O5' FAD     0      -2.638  -6.348   4.297  0.00  0.00    +0.000 OA
BRANCH  33  34
ATOM     34  C5' FAD     0      -2.778  -7.764   4.173  0.00  0.00    +0.000 C 
BRANCH  34  35
ATOM     35  C4' FAD     0      -1.589  -8.455   4.841  0.00  0.00    +0.000 C 
BRANCH  35  36
ATOM     36  O4' FAD     0      -1.095  -7.634   5.901  0.00  0.00    +0.000 OA
ATOM     37 HO4' FAD     0      -1.851  -7.422   6.467  0.00  0.00    +0.000 HD
ENDBRANCH  35  36
BRANCH  35  38
ATOM     38  C3' FAD     0      -2.035  -9.804   5.409  0.00  0.00    +0.000 C 
BRANCH  38  39
ATOM     39  O3' FAD     0      -1.992 -10.792   4.377  0.00  0.00    +0.000 OA
ATOM     40 HO3' FAD     0      -1.389 -11.485   4.678  0.00  0.00    +0.000 HD
ENDBRANCH  38  39
BRANCH  38  41
ATOM     41  C2' FAD     0      -1.098 -10.214   6.547  0.00  0.00    +0.000 C 
BRANCH  41  42
ATOM     42  O2' FAD     0      -1.846 -10.889   7.559  0.00  0.00    +0.000 OA
ATOM     43 HO2' FAD     0      -2.512 -10.265   7.879  0.00  0.00    +0.000 HD
ENDBRANCH  41  42
BRANCH  41  44
ATOM     44  C1' FAD     0      -0.016 -11.150   6.004  0.00  0.00    +0.000 C 
BRANCH  44  61
ATOM     45  N1  FAD     0       1.354  -9.916   3.868  0.00  0.00    +0.000 N 
ATOM     46  C2  FAD     0       1.962  -9.346   2.831  0.00  0.00    +0.000 A 
ATOM     47  O2  FAD     0       1.395  -9.369   1.752  0.00  0.00    +0.000 OA
ATOM     48  N3  FAD     0       3.160  -8.748   2.898  0.00  0.00    +0.000 N 
ATOM     49  C4  FAD     0       3.848  -8.684   4.063  0.00  0.00    +0.000 A 
ATOM     50  O4  FAD     0       4.935  -8.143   4.126  0.00  0.00    +0.000 OA
ATOM     51  C4X FAD     0       3.222  -9.301   5.252  0.00  0.00    +0.000 A 
ATOM     52  N5  FAD     0       3.799  -9.295   6.426  0.00  0.00    +0.000 N 
ATOM     53  C5X FAD     0       3.203  -9.862   7.483  0.00  0.00    +0.000 C 
ATOM     54  C6  FAD     0       3.841  -9.845   8.740  0.00  0.00    +0.000 C 
ATOM     55  C7  FAD     0       3.238 -10.422   9.815  0.00  0.00    +0.000 C 
ATOM     56  C7M FAD     0       3.927 -10.400  11.155  0.00  0.00    +0.000 C 
ATOM     57  C8  FAD     0       1.997 -11.035   9.692  0.00  0.00    +0.000 C 
ATOM     58  C8M FAD     0       1.351 -11.667  10.898  0.00  0.00    +0.000 C 
ATOM     59  C9  FAD     0       1.346 -11.063   8.477  0.00  0.00    +0.000 C 
ATOM     60  C9A FAD     0       1.939 -10.480   7.360  0.00  0.00    +0.000 C 
ATOM     61  N10 FAD     0       1.295 -10.512   6.141  0.00  0.00    +0.000 N 
ATOM     62  C10 FAD     0       1.904  -9.932   5.071  0.00  0.00    +0.000 A 
ATOM     63  HN3 FAD     0       3.540  -8.355   2.099  0.00  0.00    +0.000 HD
ENDBRANCH  44  61
ENDBRANCH  41  44
ENDBRANCH  38  41
ENDBRANCH  35  38
ENDBRANCH  34  35
ENDBRANCH  33  34
ENDBRANCH   1  33
TORSDOF 21
ENDMDL
MODEL 10
REMARK VINA RESULT:    -9.141      3.441     12.419
REMARK INTER + INTRA:         -20.384
REMARK INTER:                 -18.225
REMARK INTRA:                  -2.159
REMARK UNBOUND:                -2.159
REMARK  Name = /home/esp/scriptDevelopment/voidDock/outputs/134189607_FAD/FAD.pdb
REMARK  23 active torsions:
REMARK  status: ('A' for Active; 'I' for Inactive)
REMARK    1  A    between atoms: PA_1  and  O2A_3
REMARK    2  A    between atoms: PA_1  and  O5B_4
REMARK    3  A    between atoms: PA_1  and  O3P_53
REMARK    4  A    between atoms: O5B_4  and  C5B_5
REMARK    5  A    between atoms: C5B_5  and  C4B_6
REMARK    6  A    between atoms: C3B_8  and  O3B_9
REMARK    7  A    between atoms: C2B_10  and  O2B_11
REMARK    8  A    between atoms: C1B_12  and  N9A_13
REMARK    9  A    between atoms: C6A_17  and  N6A_18
REMARK   10  A    between atoms: C7_33  and  C7M_34
REMARK   11  A    between atoms: C8_35  and  C8M_36
REMARK   12  A    between atoms: N10_39  and  C1'_41
REMARK   13  A    between atoms: C1'_41  and  C2'_42
REMARK   14  A    between atoms: C2'_42  and  O2'_43
REMARK   15  A    between atoms: C2'_42  and  C3'_44
REMARK   16  A    between atoms: C3'_44  and  O3'_45
REMARK   17  A    between atoms: C3'_44  and  C4'_46
REMARK   18  A    between atoms: C4'_46  and  O4'_47
REMARK   19  A    between atoms: C4'_46  and  C5'_48
REMARK   20  A    between atoms: C5'_48  and  O5'_49
REMARK   21  A    between atoms: O5'_49  and  P_50
REMARK   22  A    between atoms: P_50  and  O2P_52
REMARK   23  A    between atoms: P_50  and  O3P_53
REMARK                            x       y       z     vdW  Elec       q    Type
REMARK                         _______ _______ _______ _____ _____    ______ ____
ROOT
ATOM      1  P   FAD     0      -2.918  -7.247   4.737  0.00  0.00    +0.000 P 
ATOM      2  O1P FAD     0      -2.807  -8.690   5.044  0.00  0.00    +0.000 OA
ENDROOT
BRANCH   1   3
ATOM      3  O2P FAD     0      -2.651  -7.010   3.168  0.00  0.00    +0.000 OA
ATOM      4 HOP2 FAD     0      -2.714  -6.057   3.014  0.00  0.00    +0.000 HD
ENDBRANCH   1   3
BRANCH   1   5
ATOM      5  O3P FAD     0      -1.829  -6.430   5.596  0.00  0.00    +0.000 OA
BRANCH   5   6
ATOM      6  PA  FAD     0      -0.689  -5.949   4.568  0.00  0.00    +0.000 P 
ATOM      7  O1A FAD     0       0.490  -5.474   5.327  0.00  0.00    +0.000 OA
BRANCH   6   8
ATOM      8  O2A FAD     0      -1.260  -4.750   3.658  0.00  0.00    +0.000 OA
ATOM      9 HOA2 FAD     0      -0.722  -4.727   2.857  0.00  0.00    +0.000 HD
ENDBRANCH   6   8
BRANCH   6  10
ATOM     10  O5B FAD     0      -0.260  -7.181   3.625  0.00  0.00    +0.000 OA
BRANCH  10  11
ATOM     11  C5B FAD     0       1.168  -7.202   3.595  0.00  0.00    +0.000 C 
BRANCH  11  12
ATOM     12  C4B FAD     0       1.661  -8.642   3.750  0.00  0.00    +0.000 C 
ATOM     13  O4B FAD     0       1.837  -8.952   5.142  0.00  0.00    +0.000 OA
ATOM     14  C3B FAD     0       0.609  -9.618   3.190  0.00  0.00    +0.000 C 
ATOM     15  C2B FAD     0       0.260 -10.528   4.396  0.00  0.00    +0.000 C 
ATOM     16  C1B FAD     0       1.498 -10.346   5.310  0.00  0.00    +0.000 C 
BRANCH  16  17
ATOM     17  N9A FAD     0       1.159 -10.629   6.706  0.00  0.00    +0.000 N 
ATOM     18  C8A FAD     0      -0.038 -11.087   7.169  0.00  0.00    +0.000 A 
ATOM     19  N7A FAD     0       0.009 -11.228   8.462  0.00  0.00    +0.000 N 
ATOM     20  C5A FAD     0       1.236 -10.871   8.909  0.00  0.00    +0.000 A 
ATOM     21  C6A FAD     0       1.851 -10.816  10.172  0.00  0.00    +0.000 C 
ATOM     22  N1A FAD     0       3.111 -10.401  10.246  0.00  0.00    +0.000 N 
ATOM     23  C2A FAD     0       3.779 -10.046   9.163  0.00  0.00    +0.000 C 
ATOM     24  N3A FAD     0       3.244 -10.079   7.961  0.00  0.00    +0.000 N 
ATOM     25  C4A FAD     0       1.991 -10.485   7.788  0.00  0.00    +0.000 A 
BRANCH  21  26
ATOM     26  N6A FAD     0       1.160 -11.188  11.312  0.00  0.00    +0.000 N 
ATOM     27 H61A FAD     0       0.245 -11.503  11.243  0.00  0.00    +0.000 HD
ATOM     28 H62A FAD     0       1.590 -11.133  12.180  0.00  0.00    +0.000 HD
ENDBRANCH  21  26
ENDBRANCH  16  17
BRANCH  14  29
ATOM     29  O3B FAD     0       1.154 -10.394   2.120  0.00  0.00    +0.000 OA
ATOM     30 HO3A FAD     0       0.435 -10.552   1.494  0.00  0.00    +0.000 HD
ENDBRANCH  14  29
BRANCH  15  31
ATOM     31  O2B FAD     0       0.126 -11.891   3.986  0.00  0.00    +0.000 OA
ATOM     32 HO2A FAD     0       0.987 -12.163   3.637  0.00  0.00    +0.000 HD
ENDBRANCH  15  31
ENDBRANCH  11  12
ENDBRANCH  10  11
ENDBRANCH   6  10
ENDBRANCH   5   6
ENDBRANCH   1   5
BRANCH   1  33
ATOM     33  O5' FAD     0      -4.396  -6.732   5.113  0.00  0.00    +0.000 OA
BRANCH  33  34
ATOM     34  C5' FAD     0      -4.760  -5.764   4.129  0.00  0.00    +0.000 C 
BRANCH  34  35
ATOM     35  C4' FAD     0      -4.581  -4.358   4.703  0.00  0.00    +0.000 C 
BRANCH  35  36
ATOM     36  O4' FAD     0      -3.709  -3.606   3.856  0.00  0.00    +0.000 OA
ATOM     37 HO4' FAD     0      -3.952  -2.676   3.960  0.00  0.00    +0.000 HD
ENDBRANCH  35  36
BRANCH  35  38
ATOM     38  C3' FAD     0      -5.940  -3.660   4.780  0.00  0.00    +0.000 C 
BRANCH  38  39
ATOM     39  O3' FAD     0      -6.939  -4.607   5.166  0.00  0.00    +0.000 OA
ATOM     40 HO3' FAD     0      -7.630  -4.112   5.628  0.00  0.00    +0.000 HD
ENDBRANCH  38  39
BRANCH  38  41
ATOM     41  C2' FAD     0      -5.878  -2.535   5.815  0.00  0.00    +0.000 C 
BRANCH  41  42
ATOM     42  O2' FAD     0      -4.519  -2.139   6.006  0.00  0.00    +0.000 OA
ATOM     43 HO2' FAD     0      -4.403  -1.299   5.541  0.00  0.00    +0.000 HD
ENDBRANCH  41  42
BRANCH  41  44
ATOM     44  C1' FAD     0      -6.691  -1.338   5.315  0.00  0.00    +0.000 C 
BRANCH  44  61
ATOM     45  N1  FAD     0      -8.831  -1.370   3.477  0.00  0.00    +0.000 N 
ATOM     46  C2  FAD     0      -9.808  -1.379   2.574  0.00  0.00    +0.000 A 
ATOM     47  O2  FAD     0      -9.504  -1.243   1.402  0.00  0.00    +0.000 OA
ATOM     48  N3  FAD     0     -11.106  -1.527   2.873  0.00  0.00    +0.000 N 
ATOM     49  C4  FAD     0     -11.519  -1.683   4.153  0.00  0.00    +0.000 A 
ATOM     50  O4  FAD     0     -12.696  -1.817   4.426  0.00  0.00    +0.000 OA
ATOM     51  C4X FAD     0     -10.478  -1.682   5.203  0.00  0.00    +0.000 A 
ATOM     52  N5  FAD     0     -10.765  -1.826   6.471  0.00  0.00    +0.000 N 
ATOM     53  C5X FAD     0      -9.797  -1.822   7.396  0.00  0.00    +0.000 C 
ATOM     54  C6  FAD     0     -10.128  -1.979   8.757  0.00  0.00    +0.000 C 
ATOM     55  C7  FAD     0      -9.145  -1.973   9.700  0.00  0.00    +0.000 C 
ATOM     56  C7M FAD     0      -9.507  -2.141  11.153  0.00  0.00    +0.000 C 
ATOM     57  C8  FAD     0      -7.813  -1.810   9.338  0.00  0.00    +0.000 C 
ATOM     58  C8M FAD     0      -6.744  -1.807  10.401  0.00  0.00    +0.000 C 
ATOM     59  C9  FAD     0      -7.459  -1.659   8.015  0.00  0.00    +0.000 C 
ATOM     60  C9A FAD     0      -8.442  -1.662   7.029  0.00  0.00    +0.000 C 
ATOM     61  N10 FAD     0      -8.093  -1.505   5.705  0.00  0.00    +0.000 N 
ATOM     62  C10 FAD     0      -9.081  -1.513   4.769  0.00  0.00    +0.000 A 
ATOM     63  HN3 FAD     0     -11.762  -1.523   2.159  0.00  0.00    +0.000 HD
ENDBRANCH  44  61
ENDBRANCH  41  44
ENDBRANCH  38  41
ENDBRANCH  35  38
ENDBRANCH  34  35
ENDBRANCH  33  34
ENDBRANCH   1  33
TORSDOF 21
ENDMDL
