REMARK  Name = /home/esp/scriptDevelopment/voidDock/outputs/134189607_FAD/FAD.pdb
REMARK  23 active torsions:
REMARK  status: ('A' for Active; 'I' for Inactive)
REMARK    1  A    between atoms: PA_1  and  O2A_3
REMARK    2  A    between atoms: PA_1  and  O5B_4
REMARK    3  A    between atoms: PA_1  and  O3P_53
REMARK    4  A    between atoms: O5B_4  and  C5B_5
REMARK    5  A    between atoms: C5B_5  and  C4B_6
REMARK    6  A    between atoms: C3B_8  and  O3B_9
REMARK    7  A    between atoms: C2B_10  and  O2B_11
REMARK    8  A    between atoms: C1B_12  and  N9A_13
REMARK    9  A    between atoms: C6A_17  and  N6A_18
REMARK   10  A    between atoms: C7_33  and  C7M_34
REMARK   11  A    between atoms: C8_35  and  C8M_36
REMARK   12  A    between atoms: N10_39  and  C1'_41
REMARK   13  A    between atoms: C1'_41  and  C2'_42
REMARK   14  A    between atoms: C2'_42  and  O2'_43
REMARK   15  A    between atoms: C2'_42  and  C3'_44
REMARK   16  A    between atoms: C3'_44  and  O3'_45
REMARK   17  A    between atoms: C3'_44  and  C4'_46
REMARK   18  A    between atoms: C4'_46  and  O4'_47
REMARK   19  A    between atoms: C4'_46  and  C5'_48
REMARK   20  A    between atoms: C5'_48  and  O5'_49
REMARK   21  A    between atoms: O5'_49  and  P_50
REMARK   22  A    between atoms: P_50  and  O2P_52
REMARK   23  A    between atoms: P_50  and  O3P_53
REMARK                            x       y       z     vdW  Elec       q    Type
REMARK                         _______ _______ _______ _____ _____    ______ ____
ROOT
ATOM      1  P   FAD     0      -1.239  -0.662  -0.677  0.00  0.00    +0.000 P 
ATOM      2  O1P FAD     0      -0.354  -1.835  -0.853  0.00  0.00    +0.000 OA
ENDROOT
BRANCH   1   3
ATOM      3  O2P FAD     0      -2.754  -1.160  -0.462  0.00  0.00    +0.000 OA
ATOM      4 HOP2 FAD     0      -3.296  -0.367  -0.351  0.00  0.00    +0.000 HD
ENDBRANCH   1   3
BRANCH   1   5
ATOM      5  O3P FAD     0      -1.161   0.270  -1.987  0.00  0.00    +0.000 OA
BRANCH   5   6
ATOM      6  PA  FAD     0      -1.648  -0.629  -3.229  0.00  0.00    +0.000 P 
ATOM      7  O1A FAD     0      -3.035  -1.088  -2.992  0.00  0.00    +0.000 OA
BRANCH   6   8
ATOM      8  O2A FAD     0      -0.678  -1.906  -3.378  0.00  0.00    +0.000 OA
ATOM      9 HOA2 FAD     0       0.212  -1.564  -3.531  0.00  0.00    +0.000 HD
ENDBRANCH   6   8
BRANCH   6  10
ATOM     10  O5B FAD     0      -1.595   0.245  -4.580  0.00  0.00    +0.000 OA
BRANCH  10  11
ATOM     11  C5B FAD     0      -2.036  -0.605  -5.640  0.00  0.00    +0.000 C 
BRANCH  11  12
ATOM     12  C4B FAD     0      -2.009   0.169  -6.959  0.00  0.00    +0.000 C 
ATOM     13  O4B FAD     0      -0.665   0.583  -7.256  0.00  0.00    +0.000 OA
ATOM     14  C3B FAD     0      -2.476  -0.741  -8.111  0.00  0.00    +0.000 C 
ATOM     15  C2B FAD     0      -1.277  -0.748  -9.095  0.00  0.00    +0.000 C 
ATOM     16  C1B FAD     0      -0.518   0.541  -8.692  0.00  0.00    +0.000 C 
BRANCH  16  17
ATOM     17  N9A FAD     0       0.895   0.449  -9.063  0.00  0.00    +0.000 N 
ATOM     18  C8A FAD     0       1.889  -0.118  -8.322  0.00  0.00    +0.000 A 
ATOM     19  N7A FAD     0       3.023  -0.024  -8.953  0.00  0.00    +0.000 N 
ATOM     20  C5A FAD     0       2.830   0.606 -10.136  0.00  0.00    +0.000 A 
ATOM     21  C6A FAD     0       3.663   0.979 -11.205  0.00  0.00    +0.000 C 
ATOM     22  N1A FAD     0       3.119   1.607 -12.242  0.00  0.00    +0.000 N 
ATOM     23  C2A FAD     0       1.827   1.878 -12.277  0.00  0.00    +0.000 C 
ATOM     24  N3A FAD     0       1.010   1.549 -11.299  0.00  0.00    +0.000 N 
ATOM     25  C4A FAD     0       1.462   0.914 -10.223  0.00  0.00    +0.000 A 
BRANCH  21  26
ATOM     26  N6A FAD     0       5.018   0.698 -11.178  0.00  0.00    +0.000 N 
ATOM     27 H61A FAD     0       5.582   0.960 -11.922  0.00  0.00    +0.000 HD
ATOM     28 H62A FAD     0       5.403   0.239 -10.415  0.00  0.00    +0.000 HD
ENDBRANCH  21  26
ENDBRANCH  16  17
BRANCH  14  29
ATOM     29  O3B FAD     0      -3.639  -0.203  -8.744  0.00  0.00    +0.000 OA
ATOM     30 HO3A FAD     0      -3.845  -0.782  -9.490  0.00  0.00    +0.000 HD
ENDBRANCH  14  29
BRANCH  15  31
ATOM     31  O2B FAD     0      -1.728  -0.672 -10.449  0.00  0.00    +0.000 OA
ATOM     32 HO2A FAD     0      -2.190  -1.501 -10.636  0.00  0.00    +0.000 HD
ENDBRANCH  15  31
ENDBRANCH  11  12
ENDBRANCH  10  11
ENDBRANCH   6  10
ENDBRANCH   5   6
ENDBRANCH   1   5
BRANCH   1  33
ATOM     33  O5' FAD     0      -0.763   0.179   0.610  0.00  0.00    +0.000 OA
BRANCH  33  34
ATOM     34  C5' FAD     0      -0.854  -0.697   1.734  0.00  0.00    +0.000 C 
BRANCH  34  35
ATOM     35  C4' FAD     0      -0.413   0.044   2.997  0.00  0.00    +0.000 C 
BRANCH  35  36
ATOM     36  O4' FAD     0      -1.262   1.174   3.206  0.00  0.00    +0.000 OA
ATOM     37 HO4' FAD     0      -2.162   0.834   3.304  0.00  0.00    +0.000 HD
ENDBRANCH  35  36
BRANCH  35  38
ATOM     38  C3' FAD     0      -0.511  -0.895   4.201  0.00  0.00    +0.000 C 
BRANCH  38  39
ATOM     39  O3' FAD     0       0.337  -2.026   3.992  0.00  0.00    +0.000 OA
ATOM     40 HO3' FAD     0       1.237  -1.686   3.894  0.00  0.00    +0.000 HD
ENDBRANCH  38  39
BRANCH  38  41
ATOM     41  C2' FAD     0      -0.070  -0.153   5.464  0.00  0.00    +0.000 C 
BRANCH  41  42
ATOM     42  O2' FAD     0      -0.919   0.977   5.673  0.00  0.00    +0.000 OA
ATOM     43 HO2' FAD     0      -1.819   0.637   5.771  0.00  0.00    +0.000 HD
ENDBRANCH  41  42
BRANCH  41  44
ATOM     44  C1' FAD     0      -0.168  -1.093   6.668  0.00  0.00    +0.000 C 
BRANCH  44  61
ATOM     45  N1  FAD     0      -1.933   0.360   8.321  0.00  0.00    +0.000 N 
ATOM     46  C2  FAD     0      -2.802   1.033   9.070  0.00  0.00    +0.000 A 
ATOM     47  O2  FAD     0      -3.970   1.043   8.721  0.00  0.00    +0.000 OA
ATOM     48  N3  FAD     0      -2.474   1.701  10.185  0.00  0.00    +0.000 N 
ATOM     49  C4  FAD     0      -1.197   1.734  10.634  0.00  0.00    +0.000 A 
ATOM     50  O4  FAD     0      -0.897   2.340  11.644  0.00  0.00    +0.000 OA
ATOM     51  C4X FAD     0      -0.184   1.003   9.842  0.00  0.00    +0.000 A 
ATOM     52  N5  FAD     0       1.078   0.968  10.185  0.00  0.00    +0.000 N 
ATOM     53  C5X FAD     0       1.969   0.295   9.446  0.00  0.00    +0.000 C 
ATOM     54  C6  FAD     0       3.324   0.270   9.833  0.00  0.00    +0.000 C 
ATOM     55  C7  FAD     0       4.232  -0.412   9.082  0.00  0.00    +0.000 C 
ATOM     56  C7M FAD     0       5.679  -0.434   9.502  0.00  0.00    +0.000 C 
ATOM     57  C8  FAD     0       3.841  -1.085   7.930  0.00  0.00    +0.000 C 
ATOM     58  C8M FAD     0       4.866  -1.832   7.116  0.00  0.00    +0.000 C 
ATOM     59  C9  FAD     0       2.523  -1.082   7.529  0.00  0.00    +0.000 C 
ATOM     60  C9A FAD     0       1.572  -0.393   8.278  0.00  0.00    +0.000 C 
ATOM     61  N10 FAD     0       0.253  -0.382   7.877  0.00  0.00    +0.000 N 
ATOM     62  C10 FAD     0      -0.649   0.301   8.634  0.00  0.00    +0.000 A 
ATOM     63  HN3 FAD     0      -3.164   2.169  10.679  0.00  0.00    +0.000 HD
ENDBRANCH  44  61
ENDBRANCH  41  44
ENDBRANCH  38  41
ENDBRANCH  35  38
ENDBRANCH  34  35
ENDBRANCH  33  34
ENDBRANCH   1  33
TORSDOF 21
