MODEL 1
REMARK VINA RESULT:    -8.090      0.000      0.000
REMARK INTER + INTRA:          -8.090
REMARK INTER:                  -8.090
REMARK INTRA:                   0.000
REMARK UNBOUND:                 0.000
REMARK  0 active torsions:
REMARK  status: ('A' for Active; 'I' for Inactive)
ROOT
HETATM    1  N1  LFN     0     -10.066  -1.510   8.496  0.00  0.00    -0.173 NA
HETATM    2  C2  LFN     0      -9.196  -2.119   9.298  0.00  0.00     0.350 A 
HETATM    3  C10 LFN     0     -10.008  -1.646   7.183  0.00  0.00     0.170 A 
HETATM    4  O2  LFN     0      -9.305  -1.945  10.498  0.00  0.00    -0.244 OA
HETATM    5  N3  LFN     0      -8.206  -2.914   8.866  0.00  0.00    -0.272 N 
HETATM    6  C4  LFN     0      -8.022  -3.154   7.546  0.00  0.00     0.282 A 
HETATM    7  O4  LFN     0      -7.125  -3.874   7.152  0.00  0.00    -0.265 OA
HETATM    8  C4A LFN     0      -8.959  -2.502   6.605  0.00  0.00     0.171 A 
HETATM    9  N5  LFN     0      -8.872  -2.665   5.309  0.00  0.00    -0.237 NA
HETATM   10  C5A LFN     0      -9.738  -2.061   4.485  0.00  0.00     0.085 A 
HETATM   11  C6  LFN     0      -9.628  -2.249   3.093  0.00  0.00     0.041 A 
HETATM   12  C9A LFN     0     -10.766  -1.232   4.990  0.00  0.00     0.065 A 
HETATM   13  C7  LFN     0     -10.507  -1.636   2.253  0.00  0.00    -0.054 A 
HETATM   14  C7M LFN     0     -10.384  -1.842   0.765  0.00  0.00     0.049 C 
HETATM   15  C8  LFN     0     -11.518  -0.821   2.752  0.00  0.00    -0.054 A 
HETATM   16  C8M LFN     0     -12.478  -0.154   1.801  0.00  0.00     0.049 C 
HETATM   17  C9  LFN     0     -11.651  -0.618   4.108  0.00  0.00     0.039 A 
HETATM   18  N10 LFN     0     -10.895  -1.033   6.349  0.00  0.00    -0.332 N 
HETATM   19  C1' LFN     0     -11.957  -0.177   6.882  0.00  0.00     0.158 C 
HETATM   20  H3  LFN     0      -7.610  -3.325   9.511  0.00  0.00     0.174 HD
ENDROOT
TORSDOF 0
ENDMDL
MODEL 2
REMARK VINA RESULT:    -7.686      3.482      6.005
REMARK INTER + INTRA:          -7.686
REMARK INTER:                  -7.686
REMARK INTRA:                   0.000
REMARK UNBOUND:                 0.000
REMARK  0 active torsions:
REMARK  status: ('A' for Active; 'I' for Inactive)
ROOT
HETATM    1  N1  LFN     0     -11.221  -3.205   2.352  0.00  0.00    -0.173 NA
HETATM    2  C2  LFN     0     -10.966  -2.811   1.107  0.00  0.00     0.350 A 
HETATM    3  C10 LFN     0     -10.621  -2.649   3.390  0.00  0.00     0.170 A 
HETATM    4  O2  LFN     0     -11.552  -3.371   0.198  0.00  0.00    -0.244 OA
HETATM    5  N3  LFN     0     -10.104  -1.833   0.791  0.00  0.00    -0.272 N 
HETATM    6  C4  LFN     0      -9.417  -1.165   1.747  0.00  0.00     0.282 A 
HETATM    7  O4  LFN     0      -8.635  -0.279   1.463  0.00  0.00    -0.265 OA
HETATM    8  C4A LFN     0      -9.658  -1.561   3.152  0.00  0.00     0.171 A 
HETATM    9  N5  LFN     0      -9.048  -0.982   4.155  0.00  0.00    -0.237 NA
HETATM   10  C5A LFN     0      -9.291  -1.364   5.416  0.00  0.00     0.085 A 
HETATM   11  C6  LFN     0      -8.623  -0.729   6.481  0.00  0.00     0.041 A 
HETATM   12  C9A LFN     0     -10.210  -2.401   5.697  0.00  0.00     0.065 A 
HETATM   13  C7  LFN     0      -8.868  -1.115   7.763  0.00  0.00    -0.054 A 
HETATM   14  C7M LFN     0      -8.150  -0.431   8.898  0.00  0.00     0.049 C 
HETATM   15  C8  LFN     0      -9.773  -2.135   8.039  0.00  0.00    -0.054 A 
HETATM   16  C8M LFN     0     -10.026  -2.544   9.467  0.00  0.00     0.049 C 
HETATM   17  C9  LFN     0     -10.440  -2.775   7.018  0.00  0.00     0.039 A 
HETATM   18  N10 LFN     0     -10.876  -3.037   4.671  0.00  0.00    -0.332 N 
HETATM   19  C1' LFN     0     -11.831  -4.113   4.953  0.00  0.00     0.158 C 
HETATM   20  H3  LFN     0      -9.970  -1.600  -0.141  0.00  0.00     0.174 HD
ENDROOT
TORSDOF 0
ENDMDL
MODEL 3
REMARK VINA RESULT:    -7.672      2.990      6.274
REMARK INTER + INTRA:          -7.672
REMARK INTER:                  -7.672
REMARK INTRA:                   0.000
REMARK UNBOUND:                 0.000
REMARK  0 active torsions:
REMARK  status: ('A' for Active; 'I' for Inactive)
ROOT
HETATM    1  N1  LFN     0      -9.343  -1.043   2.675  0.00  0.00    -0.173 NA
HETATM    2  C2  LFN     0     -10.360  -0.865   1.836  0.00  0.00     0.350 A 
HETATM    3  C10 LFN     0      -9.538  -1.219   3.971  0.00  0.00     0.170 A 
HETATM    4  O2  LFN     0     -10.106  -0.703   0.656  0.00  0.00    -0.244 OA
HETATM    5  N3  LFN     0     -11.648  -0.853   2.210  0.00  0.00    -0.272 N 
HETATM    6  C4  LFN     0     -12.006  -1.025   3.503  0.00  0.00     0.282 A 
HETATM    7  O4  LFN     0     -13.173  -1.014   3.844  0.00  0.00    -0.265 OA
HETATM    8  C4A LFN     0     -10.917  -1.227   4.484  0.00  0.00     0.171 A 
HETATM    9  N5  LFN     0     -11.151  -1.404   5.760  0.00  0.00    -0.237 NA
HETATM   10  C5A LFN     0     -10.141  -1.585   6.621  0.00  0.00     0.085 A 
HETATM   11  C6  LFN     0     -10.414  -1.774   7.991  0.00  0.00     0.041 A 
HETATM   12  C9A LFN     0      -8.799  -1.591   6.177  0.00  0.00     0.065 A 
HETATM   13  C7  LFN     0      -9.389  -1.958   8.868  0.00  0.00    -0.054 A 
HETATM   14  C7M LFN     0      -9.688  -2.159  10.332  0.00  0.00     0.049 C 
HETATM   15  C8  LFN     0      -8.069  -1.963   8.430  0.00  0.00    -0.054 A 
HETATM   16  C8M LFN     0      -6.953  -2.170   9.421  0.00  0.00     0.049 C 
HETATM   17  C9  LFN     0      -7.771  -1.782   7.097  0.00  0.00     0.039 A 
HETATM   18  N10 LFN     0      -8.507  -1.409   4.842  0.00  0.00    -0.332 N 
HETATM   19  C1' LFN     0      -7.119  -1.413   4.372  0.00  0.00     0.158 C 
HETATM   20  H3  LFN     0     -12.336  -0.717   1.540  0.00  0.00     0.174 HD
ENDROOT
TORSDOF 0
ENDMDL
MODEL 4
REMARK VINA RESULT:    -7.570      1.406      2.872
REMARK INTER + INTRA:          -7.570
REMARK INTER:                  -7.570
REMARK INTRA:                   0.000
REMARK UNBOUND:                 0.000
REMARK  0 active torsions:
REMARK  status: ('A' for Active; 'I' for Inactive)
ROOT
HETATM    1  N1  LFN     0      -7.485  -1.996   7.367  0.00  0.00    -0.173 NA
HETATM    2  C2  LFN     0      -7.638  -1.827   8.678  0.00  0.00     0.350 A 
HETATM    3  C10 LFN     0      -8.436  -1.665   6.511  0.00  0.00     0.170 A 
HETATM    4  O2  LFN     0      -6.721  -2.159   9.408  0.00  0.00    -0.244 OA
HETATM    5  N3  LFN     0      -8.740  -1.313   9.245  0.00  0.00    -0.272 N 
HETATM    6  C4  LFN     0      -9.798  -0.923   8.497  0.00  0.00     0.282 A 
HETATM    7  O4  LFN     0     -10.798  -0.458   9.010  0.00  0.00    -0.265 OA
HETATM    8  C4A LFN     0      -9.687  -1.088   7.032  0.00  0.00     0.171 A 
HETATM    9  N5  LFN     0     -10.650  -0.743   6.215  0.00  0.00    -0.237 NA
HETATM   10  C5A LFN     0     -10.516  -0.905   4.892  0.00  0.00     0.085 A 
HETATM   11  C6  LFN     0     -11.565  -0.527   4.030  0.00  0.00     0.041 A 
HETATM   12  C9A LFN     0      -9.333  -1.450   4.343  0.00  0.00     0.065 A 
HETATM   13  C7  LFN     0     -11.431  -0.691   2.685  0.00  0.00    -0.054 A 
HETATM   14  C7M LFN     0     -12.557  -0.285   1.769  0.00  0.00     0.049 C 
HETATM   15  C8  LFN     0     -10.266  -1.228   2.146  0.00  0.00    -0.054 A 
HETATM   16  C8M LFN     0     -10.143  -1.398   0.654  0.00  0.00     0.049 C 
HETATM   17  C9  LFN     0      -9.224  -1.606   2.964  0.00  0.00     0.039 A 
HETATM   18  N10 LFN     0      -8.292  -1.826   5.165  0.00  0.00    -0.332 N 
HETATM   19  C1' LFN     0      -7.063  -2.392   4.605  0.00  0.00     0.158 C 
HETATM   20  H3  LFN     0      -8.778  -1.221  10.210  0.00  0.00     0.174 HD
ENDROOT
TORSDOF 0
ENDMDL
MODEL 5
REMARK VINA RESULT:    -7.100     13.750     15.842
REMARK INTER + INTRA:          -7.100
REMARK INTER:                  -7.100
REMARK INTRA:                   0.000
REMARK UNBOUND:                 0.000
REMARK  0 active torsions:
REMARK  status: ('A' for Active; 'I' for Inactive)
ROOT
HETATM    1  N1  LFN     0       2.359  -9.535   4.129  0.00  0.00    -0.173 NA
HETATM    2  C2  LFN     0       1.533  -9.645   3.091  0.00  0.00     0.350 A 
HETATM    3  C10 LFN     0       2.040 -10.012   5.320  0.00  0.00     0.170 A 
HETATM    4  O2  LFN     0       1.890  -9.178   2.024  0.00  0.00    -0.244 OA
HETATM    5  N3  LFN     0       0.331 -10.238   3.147  0.00  0.00    -0.272 N 
HETATM    6  C4  LFN     0      -0.132 -10.779   4.298  0.00  0.00     0.282 A 
HETATM    7  O4  LFN     0      -1.221 -11.317   4.351  0.00  0.00    -0.265 OA
HETATM    8  C4A LFN     0       0.743 -10.687   5.487  0.00  0.00     0.171 A 
HETATM    9  N5  LFN     0       0.393 -11.176   6.650  0.00  0.00    -0.237 NA
HETATM   10  C5A LFN     0       1.211 -11.076   7.707  0.00  0.00     0.085 A 
HETATM   11  C6  LFN     0       0.816 -11.610   8.950  0.00  0.00     0.041 A 
HETATM   12  C9A LFN     0       2.468 -10.441   7.597  0.00  0.00     0.065 A 
HETATM   13  C7  LFN     0       1.644 -11.509  10.026  0.00  0.00    -0.054 A 
HETATM   14  C7M LFN     0       1.216 -12.082  11.353  0.00  0.00     0.049 C 
HETATM   15  C8  LFN     0       2.882 -10.884   9.916  0.00  0.00    -0.054 A 
HETATM   16  C8M LFN     0       3.780 -10.786  11.122  0.00  0.00     0.049 C 
HETATM   17  C9  LFN     0       3.295 -10.353   8.713  0.00  0.00     0.039 A 
HETATM   18  N10 LFN     0       2.877  -9.912   6.390  0.00  0.00    -0.332 N 
HETATM   19  C1' LFN     0       4.179  -9.252   6.266  0.00  0.00     0.158 C 
HETATM   20  H3  LFN     0      -0.216 -10.280   2.348  0.00  0.00     0.174 HD
ENDROOT
TORSDOF 0
ENDMDL
MODEL 6
REMARK VINA RESULT:    -6.884     12.551     13.987
REMARK INTER + INTRA:          -6.884
REMARK INTER:                  -6.884
REMARK INTRA:                   0.000
REMARK UNBOUND:                 0.000
REMARK  0 active torsions:
REMARK  status: ('A' for Active; 'I' for Inactive)
ROOT
HETATM    1  N1  LFN     0       2.822   1.783  -0.172  0.00  0.00    -0.173 NA
HETATM    2  C2  LFN     0       2.528   0.603  -0.713  0.00  0.00     0.350 A 
HETATM    3  C10 LFN     0       2.253   2.192   0.949  0.00  0.00     0.170 A 
HETATM    4  O2  LFN     0       3.087   0.294  -1.749  0.00  0.00    -0.244 OA
HETATM    5  N3  LFN     0       1.653  -0.267  -0.186  0.00  0.00    -0.272 N 
HETATM    6  C4  LFN     0       0.994   0.009   0.963  0.00  0.00     0.282 A 
HETATM    7  O4  LFN     0       0.200  -0.778   1.442  0.00  0.00    -0.265 OA
HETATM    8  C4A LFN     0       1.279   1.308   1.611  0.00  0.00     0.171 A 
HETATM    9  N5  LFN     0       0.698   1.675   2.724  0.00  0.00    -0.237 NA
HETATM   10  C5A LFN     0       0.981   2.859   3.285  0.00  0.00     0.085 A 
HETATM   11  C6  LFN     0       0.344   3.236   4.484  0.00  0.00     0.041 A 
HETATM   12  C9A LFN     0       1.912   3.741   2.691  0.00  0.00     0.065 A 
HETATM   13  C7  LFN     0       0.629   4.438   5.056  0.00  0.00    -0.054 A 
HETATM   14  C7M LFN     0      -0.055   4.835   6.338  0.00  0.00     0.049 C 
HETATM   15  C8  LFN     0       1.546   5.306   4.470  0.00  0.00    -0.054 A 
HETATM   16  C8M LFN     0       1.844   6.631   5.123  0.00  0.00     0.049 C 
HETATM   17  C9  LFN     0       2.184   4.964   3.297  0.00  0.00     0.039 A 
HETATM   18  N10 LFN     0       2.548   3.394   1.518  0.00  0.00    -0.332 N 
HETATM   19  C1' LFN     0       3.515   4.302   0.894  0.00  0.00     0.158 C 
HETATM   20  H3  LFN     0       1.490  -1.109  -0.638  0.00  0.00     0.174 HD
ENDROOT
TORSDOF 0
ENDMDL
MODEL 7
REMARK VINA RESULT:    -6.857      8.923     10.452
REMARK INTER + INTRA:          -6.857
REMARK INTER:                  -6.857
REMARK INTRA:                   0.000
REMARK UNBOUND:                 0.000
REMARK  0 active torsions:
REMARK  status: ('A' for Active; 'I' for Inactive)
ROOT
HETATM    1  N1  LFN     0     -15.334  -9.412   9.207  0.00  0.00    -0.173 NA
HETATM    2  C2  LFN     0     -15.984  -8.370   8.696  0.00  0.00     0.350 A 
HETATM    3  C10 LFN     0     -14.116  -9.733   8.805  0.00  0.00     0.170 A 
HETATM    4  O2  LFN     0     -17.105  -8.136   9.111  0.00  0.00    -0.244 OA
HETATM    5  N3  LFN     0     -15.481  -7.560   7.752  0.00  0.00    -0.272 N 
HETATM    6  C4  LFN     0     -14.243  -7.758   7.244  0.00  0.00     0.282 A 
HETATM    7  O4  LFN     0     -13.785  -7.026   6.388  0.00  0.00    -0.265 OA
HETATM    8  C4A LFN     0     -13.471  -8.903   7.773  0.00  0.00     0.171 A 
HETATM    9  N5  LFN     0     -12.264  -9.186   7.353  0.00  0.00    -0.237 NA
HETATM   10  C5A LFN     0     -11.592 -10.231   7.854  0.00  0.00     0.085 A 
HETATM   11  C6  LFN     0     -10.294 -10.518   7.388  0.00  0.00     0.041 A 
HETATM   12  C9A LFN     0     -12.166 -11.055   8.849  0.00  0.00     0.065 A 
HETATM   13  C7  LFN     0      -9.609 -11.579   7.896  0.00  0.00    -0.054 A 
HETATM   14  C7M LFN     0      -8.221 -11.881   7.393  0.00  0.00     0.049 C 
HETATM   15  C8  LFN     0     -10.175 -12.389   8.875  0.00  0.00    -0.054 A 
HETATM   16  C8M LFN     0      -9.396 -13.558   9.421  0.00  0.00     0.049 C 
HETATM   17  C9  LFN     0     -11.443 -12.133   9.351  0.00  0.00     0.039 A 
HETATM   18  N10 LFN     0     -13.435 -10.793   9.323  0.00  0.00    -0.332 N 
HETATM   19  C1' LFN     0     -14.038 -11.641  10.354  0.00  0.00     0.158 C 
HETATM   20  H3  LFN     0     -16.016  -6.819   7.428  0.00  0.00     0.174 HD
ENDROOT
TORSDOF 0
ENDMDL
MODEL 8
REMARK VINA RESULT:    -6.778     12.315     14.475
REMARK INTER + INTRA:          -6.778
REMARK INTER:                  -6.778
REMARK INTRA:                   0.000
REMARK UNBOUND:                 0.000
REMARK  0 active torsions:
REMARK  status: ('A' for Active; 'I' for Inactive)
ROOT
HETATM    1  N1  LFN     0       4.002 -10.762   5.524  0.00  0.00    -0.173 NA
HETATM    2  C2  LFN     0       4.523 -11.856   6.073  0.00  0.00     0.350 A 
HETATM    3  C10 LFN     0       2.694 -10.583   5.448  0.00  0.00     0.170 A 
HETATM    4  O2  LFN     0       5.737 -11.957   6.104  0.00  0.00    -0.244 OA
HETATM    5  N3  LFN     0       3.796 -12.855   6.595  0.00  0.00    -0.272 N 
HETATM    6  C4  LFN     0       2.443 -12.812   6.595  0.00  0.00     0.282 A 
HETATM    7  O4  LFN     0       1.781 -13.717   7.067  0.00  0.00    -0.265 OA
HETATM    8  C4A LFN     0       1.805 -11.620   5.996  0.00  0.00     0.171 A 
HETATM    9  N5  LFN     0       0.505 -11.476   5.944  0.00  0.00    -0.237 NA
HETATM   10  C5A LFN     0      -0.041 -10.382   5.396  0.00  0.00     0.085 A 
HETATM   11  C6  LFN     0      -1.442 -10.246   5.349  0.00  0.00     0.041 A 
HETATM   12  C9A LFN     0       0.770  -9.356   4.860  0.00  0.00     0.065 A 
HETATM   13  C7  LFN     0      -1.999  -9.136   4.793  0.00  0.00    -0.054 A 
HETATM   14  C7M LFN     0      -3.499  -8.997   4.746  0.00  0.00     0.049 C 
HETATM   15  C8  LFN     0      -1.200  -8.127   4.265  0.00  0.00    -0.054 A 
HETATM   16  C8M LFN     0      -1.841  -6.907   3.654  0.00  0.00     0.049 C 
HETATM   17  C9  LFN     0       0.174  -8.231   4.296  0.00  0.00     0.039 A 
HETATM   18  N10 LFN     0       2.145  -9.465   4.894  0.00  0.00    -0.332 N 
HETATM   19  C1' LFN     0       2.993  -8.407   4.341  0.00  0.00     0.158 C 
HETATM   20  H3  LFN     0       4.248 -13.622   6.978  0.00  0.00     0.174 HD
ENDROOT
TORSDOF 0
ENDMDL
MODEL 9
REMARK VINA RESULT:    -6.762      9.504     11.315
REMARK INTER + INTRA:          -6.762
REMARK INTER:                  -6.762
REMARK INTRA:                   0.000
REMARK UNBOUND:                 0.000
REMARK  0 active torsions:
REMARK  status: ('A' for Active; 'I' for Inactive)
ROOT
HETATM    1  N1  LFN     0     -16.701  -7.219   8.147  0.00  0.00    -0.173 NA
HETATM    2  C2  LFN     0     -17.534  -6.188   8.261  0.00  0.00     0.350 A 
HETATM    3  C10 LFN     0     -16.082  -7.728   9.198  0.00  0.00     0.170 A 
HETATM    4  O2  LFN     0     -18.065  -5.767   7.249  0.00  0.00    -0.244 OA
HETATM    5  N3  LFN     0     -17.825  -5.582   9.422  0.00  0.00    -0.272 N 
HETATM    6  C4  LFN     0     -17.272  -5.994  10.587  0.00  0.00     0.282 A 
HETATM    7  O4  LFN     0     -17.534  -5.447  11.640  0.00  0.00    -0.265 OA
HETATM    8  C4A LFN     0     -16.336  -7.138  10.523  0.00  0.00     0.171 A 
HETATM    9  N5  LFN     0     -15.746  -7.617  11.588  0.00  0.00    -0.237 NA
HETATM   10  C5A LFN     0     -14.904  -8.655  11.495  0.00  0.00     0.085 A 
HETATM   11  C6  LFN     0     -14.278  -9.156  12.654  0.00  0.00     0.041 A 
HETATM   12  C9A LFN     0     -14.630  -9.259  10.247  0.00  0.00     0.065 A 
HETATM   13  C7  LFN     0     -13.422 -10.210  12.562  0.00  0.00    -0.054 A 
HETATM   14  C7M LFN     0     -12.757 -10.741  13.805  0.00  0.00     0.049 C 
HETATM   15  C8  LFN     0     -13.154 -10.804  11.333  0.00  0.00    -0.054 A 
HETATM   16  C8M LFN     0     -12.202 -11.970  11.258  0.00  0.00     0.049 C 
HETATM   17  C9  LFN     0     -13.751 -10.336  10.182  0.00  0.00     0.039 A 
HETATM   18  N10 LFN     0     -15.231  -8.787   9.099  0.00  0.00    -0.332 N 
HETATM   19  C1' LFN     0     -14.953  -9.407   7.800  0.00  0.00     0.158 C 
HETATM   20  H3  LFN     0     -18.443  -4.835   9.426  0.00  0.00     0.174 HD
ENDROOT
TORSDOF 0
ENDMDL
MODEL 10
REMARK VINA RESULT:    -6.602     14.128     15.914
REMARK INTER + INTRA:          -6.602
REMARK INTER:                  -6.602
REMARK INTRA:                   0.000
REMARK UNBOUND:                 0.000
REMARK  0 active torsions:
REMARK  status: ('A' for Active; 'I' for Inactive)
ROOT
HETATM    1  N1  LFN     0       1.179  -9.966   3.859  0.00  0.00    -0.173 NA
HETATM    2  C2  LFN     0       1.789  -9.417   2.812  0.00  0.00     0.350 A 
HETATM    3  C10 LFN     0       1.741  -9.985   5.055  0.00  0.00     0.170 A 
HETATM    4  O2  LFN     0       1.214  -9.439   1.739  0.00  0.00    -0.244 OA
HETATM    5  N3  LFN     0       2.999  -8.840   2.865  0.00  0.00    -0.272 N 
HETATM    6  C4  LFN     0       3.697  -8.778   4.023  0.00  0.00     0.282 A 
HETATM    7  O4  LFN     0       4.794  -8.256   4.074  0.00  0.00    -0.265 OA
HETATM    8  C4A LFN     0       3.069  -9.373   5.223  0.00  0.00     0.171 A 
HETATM    9  N5  LFN     0       3.657  -9.369   6.393  0.00  0.00    -0.237 NA
HETATM   10  C5A LFN     0       3.059  -9.917   7.460  0.00  0.00     0.085 A 
HETATM   11  C6  LFN     0       3.708  -9.902   8.710  0.00  0.00     0.041 A 
HETATM   12  C9A LFN     0       1.782 -10.512   7.352  0.00  0.00     0.065 A 
HETATM   13  C7  LFN     0       3.103 -10.457   9.796  0.00  0.00    -0.054 A 
HETATM   14  C7M LFN     0       3.802 -10.438  11.131  0.00  0.00     0.049 C 
HETATM   15  C8  LFN     0       1.846 -11.043   9.688  0.00  0.00    -0.054 A 
HETATM   16  C8M LFN     0       1.197 -11.652  10.905  0.00  0.00     0.049 C 
HETATM   17  C9  LFN     0       1.187 -11.073   8.478  0.00  0.00     0.039 A 
HETATM   18  N10 LFN     0       1.126 -10.538   6.139  0.00  0.00    -0.332 N 
HETATM   19  C1' LFN     0      -0.198 -11.154   6.017  0.00  0.00     0.158 C 
HETATM   20  H3  LFN     0       3.380  -8.460   2.059  0.00  0.00     0.174 HD
ENDROOT
TORSDOF 0
ENDMDL
