MODEL 1
REMARK VINA RESULT:    -7.791      0.000      0.000
REMARK INTER + INTRA:          -7.791
REMARK INTER:                  -7.791
REMARK INTRA:                   0.000
REMARK UNBOUND:                 0.000
REMARK  0 active torsions:
REMARK  status: ('A' for Active; 'I' for Inactive)
ROOT
HETATM    1  N1  LFN     0     -12.364   1.420  -3.547  0.00  0.00    -0.173 NA
HETATM    2  C2  LFN     0     -12.624   1.788  -4.800  0.00  0.00     0.350 A 
HETATM    3  C10 LFN     0     -12.341   2.299  -2.560  0.00  0.00     0.170 A 
HETATM    4  O2  LFN     0     -12.624   0.925  -5.660  0.00  0.00    -0.244 OA
HETATM    5  N3  LFN     0     -12.888   3.049  -5.173  0.00  0.00    -0.272 N 
HETATM    6  C4  LFN     0     -12.905   4.059  -4.273  0.00  0.00     0.282 A 
HETATM    7  O4  LFN     0     -13.143   5.203  -4.610  0.00  0.00    -0.265 OA
HETATM    8  C4A LFN     0     -12.622   3.712  -2.863  0.00  0.00     0.171 A 
HETATM    9  N5  LFN     0     -12.614   4.611  -1.912  0.00  0.00    -0.237 NA
HETATM   10  C5A LFN     0     -12.354   4.262  -0.644  0.00  0.00     0.085 A 
HETATM   11  C6  LFN     0     -12.350   5.244   0.366  0.00  0.00     0.041 A 
HETATM   12  C9A LFN     0     -12.083   2.918  -0.301  0.00  0.00     0.065 A 
HETATM   13  C7  LFN     0     -12.086   4.892   1.654  0.00  0.00    -0.054 A 
HETATM   14  C7M LFN     0     -12.083   5.948   2.730  0.00  0.00     0.049 C 
HETATM   15  C8  LFN     0     -11.820   3.569   1.991  0.00  0.00    -0.054 A 
HETATM   16  C8M LFN     0     -11.531   3.206   3.425  0.00  0.00     0.049 C 
HETATM   17  C9  LFN     0     -11.817   2.586   1.025  0.00  0.00     0.039 A 
HETATM   18  N10 LFN     0     -12.083   1.938  -1.271  0.00  0.00    -0.332 N 
HETATM   19  C1' LFN     0     -11.803   0.542  -0.925  0.00  0.00     0.158 C 
HETATM   20  H3  LFN     0     -13.068   3.240  -6.107  0.00  0.00     0.174 HD
ENDROOT
TORSDOF 0
ENDMDL
MODEL 2
REMARK VINA RESULT:    -7.357     13.819     14.812
REMARK INTER + INTRA:          -7.357
REMARK INTER:                  -7.357
REMARK INTRA:                   0.000
REMARK UNBOUND:                 0.000
REMARK  0 active torsions:
REMARK  status: ('A' for Active; 'I' for Inactive)
ROOT
HETATM    1  N1  LFN     0       0.654  11.594  -0.144  0.00  0.00    -0.173 NA
HETATM    2  C2  LFN     0       1.092  12.479  -1.036  0.00  0.00     0.350 A 
HETATM    3  C10 LFN     0      -0.251  11.917   0.763  0.00  0.00     0.170 A 
HETATM    4  O2  LFN     0       1.931  12.114  -1.840  0.00  0.00    -0.244 OA
HETATM    5  N3  LFN     0       0.665  13.749  -1.106  0.00  0.00    -0.272 N 
HETATM    6  C4  LFN     0      -0.265  14.226  -0.246  0.00  0.00     0.282 A 
HETATM    7  O4  LFN     0      -0.652  15.377  -0.307  0.00  0.00    -0.265 OA
HETATM    8  C4A LFN     0      -0.789  13.288   0.770  0.00  0.00     0.171 A 
HETATM    9  N5  LFN     0      -1.690  13.644   1.650  0.00  0.00    -0.237 NA
HETATM   10  C5A LFN     0      -2.144  12.768   2.557  0.00  0.00     0.085 A 
HETATM   11  C6  LFN     0      -3.114  13.171   3.495  0.00  0.00     0.041 A 
HETATM   12  C9A LFN     0      -1.663  11.439   2.588  0.00  0.00     0.065 A 
HETATM   13  C7  LFN     0      -3.577  12.283   4.418  0.00  0.00    -0.054 A 
HETATM   14  C7M LFN     0      -4.615  12.721   5.419  0.00  0.00     0.049 C 
HETATM   15  C8  LFN     0      -3.103  10.975   4.448  0.00  0.00    -0.054 A 
HETATM   16  C8M LFN     0      -3.632  10.012   5.479  0.00  0.00     0.049 C 
HETATM   17  C9  LFN     0      -2.154  10.552   3.543  0.00  0.00     0.039 A 
HETATM   18  N10 LFN     0      -0.714  11.021   1.680  0.00  0.00    -0.332 N 
HETATM   19  C1' LFN     0      -0.209   9.645   1.704  0.00  0.00     0.158 C 
HETATM   20  H3  LFN     0       1.031  14.337  -1.785  0.00  0.00     0.174 HD
ENDROOT
TORSDOF 0
ENDMDL
MODEL 3
REMARK VINA RESULT:    -7.193     13.660     15.265
REMARK INTER + INTRA:          -7.193
REMARK INTER:                  -7.193
REMARK INTRA:                   0.000
REMARK UNBOUND:                 0.000
REMARK  0 active torsions:
REMARK  status: ('A' for Active; 'I' for Inactive)
ROOT
HETATM    1  N1  LFN     0      -2.248  10.045   4.320  0.00  0.00    -0.173 NA
HETATM    2  C2  LFN     0      -3.167  10.164   5.274  0.00  0.00     0.350 A 
HETATM    3  C10 LFN     0      -1.997  11.029   3.474  0.00  0.00     0.170 A 
HETATM    4  O2  LFN     0      -3.349   9.215   6.016  0.00  0.00    -0.244 OA
HETATM    5  N3  LFN     0      -3.906  11.266   5.471  0.00  0.00    -0.272 N 
HETATM    6  C4  LFN     0      -3.760  12.359   4.687  0.00  0.00     0.282 A 
HETATM    7  O4  LFN     0      -4.429  13.359   4.862  0.00  0.00    -0.265 OA
HETATM    8  C4A LFN     0      -2.752  12.286   3.607  0.00  0.00     0.171 A 
HETATM    9  N5  LFN     0      -2.529  13.285   2.790  0.00  0.00    -0.237 NA
HETATM   10  C5A LFN     0      -1.607  13.184   1.823  0.00  0.00     0.085 A 
HETATM   11  C6  LFN     0      -1.382  14.271   0.955  0.00  0.00     0.041 A 
HETATM   12  C9A LFN     0      -0.853  12.001   1.657  0.00  0.00     0.065 A 
HETATM   13  C7  LFN     0      -0.447  14.172  -0.029  0.00  0.00    -0.054 A 
HETATM   14  C7M LFN     0      -0.211  15.338  -0.954  0.00  0.00     0.049 C 
HETATM   15  C8  LFN     0       0.295  13.006  -0.191  0.00  0.00    -0.054 A 
HETATM   16  C8M LFN     0       1.325  12.922  -1.288  0.00  0.00     0.049 C 
HETATM   17  C9  LFN     0       0.097  11.927   0.643  0.00  0.00     0.039 A 
HETATM   18  N10 LFN     0      -1.054  10.924   2.495  0.00  0.00    -0.332 N 
HETATM   19  C1' LFN     0      -0.277   9.693   2.331  0.00  0.00     0.158 C 
HETATM   20  H3  LFN     0      -4.558  11.279   6.188  0.00  0.00     0.174 HD
ENDROOT
TORSDOF 0
ENDMDL
MODEL 4
REMARK VINA RESULT:    -6.892     14.345     15.886
REMARK INTER + INTRA:          -6.892
REMARK INTER:                  -6.892
REMARK INTRA:                   0.000
REMARK UNBOUND:                 0.000
REMARK  0 active torsions:
REMARK  status: ('A' for Active; 'I' for Inactive)
ROOT
HETATM    1  N1  LFN     0      -1.635  10.544   2.631  0.00  0.00    -0.173 NA
HETATM    2  C2  LFN     0      -2.466  10.782   3.643  0.00  0.00     0.350 A 
HETATM    3  C10 LFN     0      -1.228  11.513   1.829  0.00  0.00     0.170 A 
HETATM    4  O2  LFN     0      -2.803   9.841   4.339  0.00  0.00    -0.244 OA
HETATM    5  N3  LFN     0      -2.955  11.994   3.944  0.00  0.00    -0.272 N 
HETATM    6  C4  LFN     0      -2.625  13.086   3.216  0.00  0.00     0.282 A 
HETATM    7  O4  LFN     0      -3.068  14.185   3.487  0.00  0.00    -0.265 OA
HETATM    8  C4A LFN     0      -1.704  12.884   2.076  0.00  0.00     0.171 A 
HETATM    9  N5  LFN     0      -1.319  13.870   1.306  0.00  0.00    -0.237 NA
HETATM   10  C5A LFN     0      -0.483  13.652   0.282  0.00  0.00     0.085 A 
HETATM   11  C6  LFN     0      -0.081  14.727  -0.534  0.00  0.00     0.041 A 
HETATM   12  C9A LFN     0       0.006  12.355   0.006  0.00  0.00     0.065 A 
HETATM   13  C7  LFN     0       0.769  14.509  -1.575  0.00  0.00    -0.054 A 
HETATM   14  C7M LFN     0       1.195  15.663  -2.445  0.00  0.00     0.049 C 
HETATM   15  C8  LFN     0       1.249  13.231  -1.846  0.00  0.00    -0.054 A 
HETATM   16  C8M LFN     0       2.189  13.016  -3.004  0.00  0.00     0.049 C 
HETATM   17  C9  LFN     0       0.874  12.161  -1.064  0.00  0.00     0.039 A 
HETATM   18  N10 LFN     0      -0.372  11.287   0.792  0.00  0.00    -0.332 N 
HETATM   19  C1' LFN     0       0.129   9.938   0.514  0.00  0.00     0.158 C 
HETATM   20  H3  LFN     0      -3.557  12.089   4.698  0.00  0.00     0.174 HD
ENDROOT
TORSDOF 0
ENDMDL
MODEL 5
REMARK VINA RESULT:    -6.795     15.226     16.528
REMARK INTER + INTRA:          -6.795
REMARK INTER:                  -6.795
REMARK INTRA:                   0.000
REMARK UNBOUND:                 0.000
REMARK  0 active torsions:
REMARK  status: ('A' for Active; 'I' for Inactive)
ROOT
HETATM    1  N1  LFN     0       2.825  13.954  -1.369  0.00  0.00    -0.173 NA
HETATM    2  C2  LFN     0       3.611  13.337  -2.249  0.00  0.00     0.350 A 
HETATM    3  C10 LFN     0       1.800  13.338  -0.807  0.00  0.00     0.170 A 
HETATM    4  O2  LFN     0       4.535  13.968  -2.731  0.00  0.00    -0.244 OA
HETATM    5  N3  LFN     0       3.449  12.063  -2.637  0.00  0.00    -0.272 N 
HETATM    6  C4  LFN     0       2.445  11.301  -2.144  0.00  0.00     0.282 A 
HETATM    7  O4  LFN     0       2.296  10.147  -2.495  0.00  0.00    -0.265 OA
HETATM    8  C4A LFN     0       1.537  11.933  -1.162  0.00  0.00     0.171 A 
HETATM    9  N5  LFN     0       0.534  11.288  -0.622  0.00  0.00    -0.237 NA
HETATM   10  C5A LFN     0      -0.269  11.890   0.265  0.00  0.00     0.085 A 
HETATM   11  C6  LFN     0      -1.343  11.178   0.834  0.00  0.00     0.041 A 
HETATM   12  C9A LFN     0      -0.055  13.236   0.642  0.00  0.00     0.065 A 
HETATM   13  C7  LFN     0      -2.160  11.788   1.736  0.00  0.00    -0.054 A 
HETATM   14  C7M LFN     0      -3.308  11.020   2.341  0.00  0.00     0.049 C 
HETATM   15  C8  LFN     0      -1.949  13.112   2.107  0.00  0.00    -0.054 A 
HETATM   16  C8M LFN     0      -2.868  13.764   3.107  0.00  0.00     0.049 C 
HETATM   17  C9  LFN     0      -0.907  13.834   1.567  0.00  0.00     0.039 A 
HETATM   18  N10 LFN     0       0.990  13.953   0.100  0.00  0.00    -0.332 N 
HETATM   19  C1' LFN     0       1.219  15.348   0.485  0.00  0.00     0.158 C 
HETATM   20  H3  LFN     0       4.063  11.682  -3.283  0.00  0.00     0.174 HD
ENDROOT
TORSDOF 0
ENDMDL
MODEL 6
REMARK VINA RESULT:    -6.716      3.028      6.018
REMARK INTER + INTRA:          -6.716
REMARK INTER:                  -6.716
REMARK INTRA:                   0.000
REMARK UNBOUND:                 0.000
REMARK  0 active torsions:
REMARK  status: ('A' for Active; 'I' for Inactive)
ROOT
HETATM    1  N1  LFN     0     -11.447   1.894   1.583  0.00  0.00    -0.173 NA
HETATM    2  C2  LFN     0     -11.083   0.771   2.196  0.00  0.00     0.350 A 
HETATM    3  C10 LFN     0     -11.865   1.893   0.328  0.00  0.00     0.170 A 
HETATM    4  O2  LFN     0     -10.703   0.848   3.351  0.00  0.00    -0.244 OA
HETATM    5  N3  LFN     0     -11.108  -0.441   1.622  0.00  0.00    -0.272 N 
HETATM    6  C4  LFN     0     -11.517  -0.603   0.342  0.00  0.00     0.282 A 
HETATM    7  O4  LFN     0     -11.540  -1.700  -0.181  0.00  0.00    -0.265 OA
HETATM    8  C4A LFN     0     -11.934   0.611  -0.393  0.00  0.00     0.171 A 
HETATM    9  N5  LFN     0     -12.347   0.569  -1.634  0.00  0.00    -0.237 NA
HETATM   10  C5A LFN     0     -12.718   1.688  -2.270  0.00  0.00     0.085 A 
HETATM   11  C6  LFN     0     -13.160   1.621  -3.606  0.00  0.00     0.041 A 
HETATM   12  C9A LFN     0     -12.674   2.942  -1.620  0.00  0.00     0.065 A 
HETATM   13  C7  LFN     0     -13.538   2.757  -4.255  0.00  0.00    -0.054 A 
HETATM   14  C7M LFN     0     -14.009   2.677  -5.684  0.00  0.00     0.049 C 
HETATM   15  C8  LFN     0     -13.494   3.990  -3.613  0.00  0.00    -0.054 A 
HETATM   16  C8M LFN     0     -13.918   5.233  -4.354  0.00  0.00     0.049 C 
HETATM   17  C9  LFN     0     -13.067   4.087  -2.307  0.00  0.00     0.039 A 
HETATM   18  N10 LFN     0     -12.247   3.034  -0.312  0.00  0.00    -0.332 N 
HETATM   19  C1' LFN     0     -12.198   4.329   0.371  0.00  0.00     0.158 C 
HETATM   20  H3  LFN     0     -10.827  -1.215   2.133  0.00  0.00     0.174 HD
ENDROOT
TORSDOF 0
ENDMDL
MODEL 7
REMARK VINA RESULT:    -6.705      3.145      5.628
REMARK INTER + INTRA:          -6.705
REMARK INTER:                  -6.705
REMARK INTRA:                   0.000
REMARK UNBOUND:                 0.000
REMARK  0 active torsions:
REMARK  status: ('A' for Active; 'I' for Inactive)
ROOT
HETATM    1  N1  LFN     0     -11.257   1.061   1.356  0.00  0.00    -0.173 NA
HETATM    2  C2  LFN     0     -11.140   1.470   2.617  0.00  0.00     0.350 A 
HETATM    3  C10 LFN     0     -11.678   1.873   0.402  0.00  0.00     0.170 A 
HETATM    4  O2  LFN     0     -10.750   0.667   3.445  0.00  0.00    -0.244 OA
HETATM    5  N3  LFN     0     -11.425   2.713   3.033  0.00  0.00    -0.272 N 
HETATM    6  C4  LFN     0     -11.863   3.659   2.170  0.00  0.00     0.282 A 
HETATM    7  O4  LFN     0     -12.123   4.787   2.545  0.00  0.00    -0.265 OA
HETATM    8  C4A LFN     0     -12.014   3.263   0.753  0.00  0.00     0.171 A 
HETATM    9  N5  LFN     0     -12.430   4.098  -0.165  0.00  0.00    -0.237 NA
HETATM   10  C5A LFN     0     -12.554   3.706  -1.440  0.00  0.00     0.085 A 
HETATM   11  C6  LFN     0     -13.004   4.621  -2.413  0.00  0.00     0.041 A 
HETATM   12  C9A LFN     0     -12.241   2.384  -1.829  0.00  0.00     0.065 A 
HETATM   13  C7  LFN     0     -13.132   4.225  -3.710  0.00  0.00    -0.054 A 
HETATM   14  C7M LFN     0     -13.613   5.208  -4.746  0.00  0.00     0.049 C 
HETATM   15  C8  LFN     0     -12.822   2.923  -4.090  0.00  0.00    -0.054 A 
HETATM   16  C8M LFN     0     -12.972   2.511  -5.532  0.00  0.00     0.049 C 
HETATM   17  C9  LFN     0     -12.380   2.007  -3.161  0.00  0.00     0.039 A 
HETATM   18  N10 LFN     0     -11.797   1.471  -0.895  0.00  0.00    -0.332 N 
HETATM   19  C1' LFN     0     -11.470   0.098  -1.287  0.00  0.00     0.158 C 
HETATM   20  H3  LFN     0     -11.315   2.938   3.970  0.00  0.00     0.174 HD
ENDROOT
TORSDOF 0
ENDMDL
MODEL 8
REMARK VINA RESULT:    -6.660     14.973     16.039
REMARK INTER + INTRA:          -6.660
REMARK INTER:                  -6.660
REMARK INTRA:                   0.000
REMARK UNBOUND:                 0.000
REMARK  0 active torsions:
REMARK  status: ('A' for Active; 'I' for Inactive)
ROOT
HETATM    1  N1  LFN     0       2.115  11.425  -2.198  0.00  0.00    -0.173 NA
HETATM    2  C2  LFN     0       3.052  12.153  -2.801  0.00  0.00     0.350 A 
HETATM    3  C10 LFN     0       1.323  11.945  -1.276  0.00  0.00     0.170 A 
HETATM    4  O2  LFN     0       3.749  11.607  -3.638  0.00  0.00    -0.244 OA
HETATM    5  N3  LFN     0       3.276  13.451  -2.546  0.00  0.00    -0.272 N 
HETATM    6  C4  LFN     0       2.541  14.123  -1.629  0.00  0.00     0.282 A 
HETATM    7  O4  LFN     0       2.742  15.299  -1.395  0.00  0.00    -0.265 OA
HETATM    8  C4A LFN     0       1.483  13.365  -0.924  0.00  0.00     0.171 A 
HETATM    9  N5  LFN     0       0.715  13.917  -0.020  0.00  0.00    -0.237 NA
HETATM   10  C5A LFN     0      -0.234  13.202   0.599  0.00  0.00     0.085 A 
HETATM   11  C6  LFN     0      -1.051  13.814   1.570  0.00  0.00     0.041 A 
HETATM   12  C9A LFN     0      -0.431  11.836   0.293  0.00  0.00     0.065 A 
HETATM   13  C7  LFN     0      -2.017  13.090   2.200  0.00  0.00    -0.054 A 
HETATM   14  C7M LFN     0      -2.887  13.751   3.238  0.00  0.00     0.049 C 
HETATM   15  C8  LFN     0      -2.209  11.746   1.898  0.00  0.00    -0.054 A 
HETATM   16  C8M LFN     0      -3.285  10.966   2.610  0.00  0.00     0.049 C 
HETATM   17  C9  LFN     0      -1.426  11.120   0.953  0.00  0.00     0.039 A 
HETATM   18  N10 LFN     0       0.355  11.215  -0.654  0.00  0.00    -0.332 N 
HETATM   19  C1' LFN     0       0.158   9.799  -0.978  0.00  0.00     0.158 C 
HETATM   20  H3  LFN     0       3.978  13.915  -3.026  0.00  0.00     0.174 HD
ENDROOT
TORSDOF 0
ENDMDL
MODEL 9
REMARK VINA RESULT:    -6.657     13.793     15.159
REMARK INTER + INTRA:          -6.657
REMARK INTER:                  -6.657
REMARK INTRA:                   0.000
REMARK UNBOUND:                 0.000
REMARK  0 active torsions:
REMARK  status: ('A' for Active; 'I' for Inactive)
ROOT
HETATM    1  N1  LFN     0       1.446  12.178  -1.279  0.00  0.00    -0.173 NA
HETATM    2  C2  LFN     0       2.098  11.214  -1.924  0.00  0.00     0.350 A 
HETATM    3  C10 LFN     0       0.581  11.905  -0.318  0.00  0.00     0.170 A 
HETATM    4  O2  LFN     0       2.877  11.540  -2.802  0.00  0.00    -0.244 OA
HETATM    5  N3  LFN     0       1.950   9.906  -1.668  0.00  0.00    -0.272 N 
HETATM    6  C4  LFN     0       1.102   9.470  -0.707  0.00  0.00     0.282 A 
HETATM    7  O4  LFN     0       0.966   8.285  -0.473  0.00  0.00    -0.265 OA
HETATM    8  C4A LFN     0       0.348  10.497   0.045  0.00  0.00     0.171 A 
HETATM    9  N5  LFN     0      -0.497  10.186   0.994  0.00  0.00    -0.237 NA
HETATM   10  C5A LFN     0      -1.164  11.142   1.657  0.00  0.00     0.085 A 
HETATM   11  C6  LFN     0      -2.070  10.786   2.675  0.00  0.00     0.041 A 
HETATM   12  C9A LFN     0      -0.972  12.508   1.349  0.00  0.00     0.065 A 
HETATM   13  C7  LFN     0      -2.748  11.755   3.350  0.00  0.00    -0.054 A 
HETATM   14  C7M LFN     0      -3.715  11.368   4.438  0.00  0.00     0.049 C 
HETATM   15  C8  LFN     0      -2.558  13.099   3.046  0.00  0.00    -0.054 A 
HETATM   16  C8M LFN     0      -3.321  14.153   3.807  0.00  0.00     0.049 C 
HETATM   17  C9  LFN     0      -1.679  13.477   2.055  0.00  0.00     0.039 A 
HETATM   18  N10 LFN     0      -0.090  12.881   0.357  0.00  0.00    -0.332 N 
HETATM   19  C1' LFN     0       0.115  14.294   0.031  0.00  0.00     0.158 C 
HETATM   20  H3  LFN     0       2.460   9.261  -2.181  0.00  0.00     0.174 HD
ENDROOT
TORSDOF 0
ENDMDL
MODEL 10
REMARK VINA RESULT:    -6.451     14.660     15.630
REMARK INTER + INTRA:          -6.451
REMARK INTER:                  -6.451
REMARK INTRA:                   0.000
REMARK UNBOUND:                 0.000
REMARK  0 active torsions:
REMARK  status: ('A' for Active; 'I' for Inactive)
ROOT
HETATM    1  N1  LFN     0       2.923   7.091  -8.651  0.00  0.00    -0.173 NA
HETATM    2  C2  LFN     0       3.820   7.690  -9.431  0.00  0.00     0.350 A 
HETATM    3  C10 LFN     0       1.644   7.421  -8.689  0.00  0.00     0.170 A 
HETATM    4  O2  LFN     0       4.983   7.338  -9.340  0.00  0.00    -0.244 OA
HETATM    5  N3  LFN     0       3.523   8.655 -10.313  0.00  0.00    -0.272 N 
HETATM    6  C4  LFN     0       2.253   9.097 -10.470  0.00  0.00     0.282 A 
HETATM    7  O4  LFN     0       1.981   9.973 -11.268  0.00  0.00    -0.265 OA
HETATM    8  C4A LFN     0       1.211   8.470  -9.628  0.00  0.00     0.171 A 
HETATM    9  N5  LFN     0      -0.048   8.821  -9.698  0.00  0.00    -0.237 NA
HETATM   10  C5A LFN     0      -0.966   8.231  -8.921  0.00  0.00     0.085 A 
HETATM   11  C6  LFN     0      -2.316   8.623  -9.011  0.00  0.00     0.041 A 
HETATM   12  C9A LFN     0      -0.602   7.216  -8.007  0.00  0.00     0.065 A 
HETATM   13  C7  LFN     0      -3.252   8.025  -8.223  0.00  0.00    -0.054 A 
HETATM   14  C7M LFN     0      -4.694   8.450  -8.325  0.00  0.00     0.049 C 
HETATM   15  C8  LFN     0      -2.892   7.027  -7.324  0.00  0.00    -0.054 A 
HETATM   16  C8M LFN     0      -3.946   6.381  -6.462  0.00  0.00     0.049 C 
HETATM   17  C9  LFN     0      -1.579   6.622  -7.213  0.00  0.00     0.039 A 
HETATM   18  N10 LFN     0       0.713   6.814  -7.901  0.00  0.00    -0.332 N 
HETATM   19  C1' LFN     0       1.100   5.763  -6.956  0.00  0.00     0.158 C 
HETATM   20  H3  LFN     0       4.231   9.045 -10.848  0.00  0.00     0.174 HD
ENDROOT
TORSDOF 0
ENDMDL
